<?xml version="1.0" encoding="UTF-8"?>

<!-- generated on Mon Sep  7 15:25:58 2020 by Eclipse SUMO polyconvert Version 1.2.0
<configuration xmlns:xsi="http://www.w3.org/2001/XMLSchema-instance" xsi:noNamespaceSchemaLocation="http://sumo.dlr.de/xsd/polyconvertConfiguration.xsd">

    <input>
        <net-file value="darmstadt.net.xml"/>
        <osm-files value="/home/longpham211/Downloads/map.osm"/>
        <type-file value="/home/longpham211/Workspace/thesis/veins_simulator/src/sumo-1.2.0/data/typemap/osmPolyconvert.typ.xml"/>
    </input>

    <output>
        <output-file value="darmstadt.poly.xml"/>
    </output>

    <processing>
        <poi-layer-offset value="5"/>
    </processing>

</configuration>
-->

<additional xmlns:xsi="http://www.w3.org/2001/XMLSchema-instance" xsi:noNamespaceSchemaLocation="http://sumo.dlr.de/xsd/additional_file.xsd">
	<tlLogic id="joinedS_1" type="static" programID="off"/>
	<tlLogic id="joinedS_12" type="static" programID="off"/>
	<tlLogic id="joinedS_8" type="static" programID="off"/>
	<tlLogic id="cluster_1619121955_1629782485_2614866915_2614866916_282357460_3819103537" type="static" programID="off"/>
	<tlLogic id="cluster_2602360781_2614084613_2624335375_2624335378_2624335382_2624335383_2624335385_382764678_382764716_386054931_386054934_531277_660520474_660520475_747147715_747147720" type="static" programID="off"/>
	<tlLogic id="cluster_531685_742228810_742228926" type="static" programID="off"/>
	<tlLogic id="cluster_2602360712_2602360715_499346_554173859_726782629" type="static" programID="off"/>
	
	<tlLogic id="cluster_320892972_7865895327_850612046" type="static" programID="off"/>
	<tlLogic id="joinedS_4" type="static" programID="off"/>
	<tlLogic id="cluster_253166711_564276_564287_564634" type="static" programID="off"/>
	
	
	

    <location netOffset="-473582.23,-5522930.60" convBoundary="-361.83,-1892.53,5450.78,3881.11" origBoundary="8.627227,49.841337,8.708239,49.893419" projParameter="+proj=utm +zone=32 +ellps=WGS84 +datum=WGS84 +units=m +no_defs"/>

    <poly id="100548640" type="building" color="255,230,230" fill="1" layer="-1.00" shape="1411.971595,1033.974961 1397.030199,1030.742191 1400.492030,1014.826786 1415.433468,1018.059565 1411.971595,1033.974961"/>
    <poly id="101507894" type="building" color="255,230,230" fill="1" layer="-1.00" shape="2155.683664,1865.465024 2157.783263,1857.817215 2161.643146,1843.757273 2163.990240,1835.218879 2173.249260,1837.745530 2164.942637,1867.991660 2155.683664,1865.465024"/>
    <poly id="101507895" type="building" color="255,230,230" fill="1" layer="-1.00" shape="2134.264773,1921.387127 2141.385022,1926.080341 2136.938804,1932.782557 2132.514052,1939.462442 2124.687560,1934.305453 2133.565705,1920.923307 2134.264773,1921.387127"/>
    <poly id="101507897" type="building" color="255,230,230" fill="1" layer="-1.00" shape="2084.690973,1773.013396 2074.866976,1774.291948 2076.198244,1784.259142 2085.979513,1783.069734 2084.690973,1773.013396"/>
    <poly id="101507900" type="building" color="255,230,230" fill="1" layer="-1.00" shape="2078.154451,1881.603100 2069.452544,1879.919093 2071.053468,1871.661992 2072.029541,1866.643175 2076.236625,1867.446915 2080.731419,1868.316068 2078.154451,1881.603100"/>
    <poly id="101507902" type="building" color="255,230,230" fill="1" layer="-1.00" shape="2092.457797,1892.134303 2110.649817,1906.172521 2104.327630,1914.328627 2086.128386,1900.279344 2092.457797,1892.134303"/>
    <poly id="101507904" type="building" color="255,230,230" fill="1" layer="-1.00" shape="2211.928277,1821.738881 2204.098187,1820.595539 2201.530335,1820.006694 2197.790847,1840.092242 2192.950745,1859.893667 2203.007321,1862.427898 2207.825552,1842.548752 2211.928277,1821.738881"/>
    <poly id="101507905" type="building" color="255,230,230" fill="1" layer="-1.00" shape="2100.613236,1861.922094 2102.568008,1850.861566 2094.923899,1849.528529 2092.644801,1860.368158 2100.613236,1861.922094"/>
    <poly id="101507906" type="building" color="255,230,230" fill="1" layer="-1.00" shape="2143.542944,1901.098661 2146.259737,1893.292406 2151.352815,1878.648739 2153.998630,1871.031822 2162.915208,1874.115918 2152.459478,1904.182740 2143.542944,1901.098661"/>
    <poly id="101507911" type="building" color="255,230,230" fill="1" layer="-1.00" shape="2077.455241,1793.692989 2072.155680,1794.428528 2057.569912,1796.184500 2042.784423,1798.263849 2043.210043,1801.808695 2044.253899,1818.114678 2075.913289,1811.822968 2079.768283,1811.027252 2079.329523,1807.749305 2059.739548,1810.395131 2059.247050,1804.771443 2078.541091,1801.826756 2077.455241,1793.692989"/>
    <poly id="101507913" type="building" color="255,230,230" fill="1" layer="-1.00" shape="2059.408130,1864.198620 2062.926209,1846.115286 2073.569903,1848.168529 2079.747573,1849.363625 2076.236625,1867.446915 2072.029541,1866.643175 2059.408130,1864.198620"/>
    <poly id="101507915" type="building" color="255,230,230" fill="1" layer="-1.00" shape="2290.244608,1735.642204 2294.278833,1707.472326 2277.367489,1705.057599 2272.197628,1741.148888 2280.229059,1742.302546 2277.894777,1758.557002 2277.379260,1762.172796 2291.946399,1764.242236 2294.245690,1748.188074 2307.425183,1750.063643 2305.070163,1766.518311 2319.989661,1768.652959 2322.344874,1752.231652 2327.046457,1752.733179 2328.641919,1741.552043 2316.569663,1739.827124 2318.876174,1723.761823 2302.317228,1721.401033 2300.073541,1737.043561 2290.244608,1735.642204"/>
    <poly id="101507916" type="building" color="255,230,230" fill="1" layer="-1.00" shape="2132.894118,1862.832641 2133.321486,1860.406900 2120.622205,1858.218276 2122.071973,1849.884044 2139.689950,1852.928844 2137.827156,1863.688747 2132.894118,1862.832641"/>
    <poly id="101507917" type="building" color="255,230,230" fill="1" layer="-1.00" shape="2090.567562,1923.830316 2067.707748,1953.275148 2076.122344,1959.774724 2098.989361,1930.329895 2090.567562,1923.830316"/>
    <poly id="101507918" type="building" color="255,230,230" fill="1" layer="-1.00" shape="2188.520164,1910.013157 2201.962005,1871.249498 2192.268290,1867.913110 2178.826460,1906.665676 2188.520164,1910.013157"/>
    <poly id="102195599" type="parking" color="184,184,179" fill="1" layer="-1.00" shape="544.735117,2141.297954 596.731611,2130.463556 586.644438,2087.172268 597.650080,2046.314803 577.722706,2033.735392 553.524016,2066.851120 535.635248,2098.702476 544.735117,2141.297954"/>
    <poly id="104789157" type="building" color="255,230,230" fill="1" layer="-1.00" shape="1857.348113,941.032462 1860.161003,927.488544 1871.023046,929.729415 1872.021637,924.921716 1875.884484,925.715754 1874.063109,934.485352 1872.783190,940.639659 1872.073014,944.078481 1857.348113,941.032462"/>
    <poly id="104789161" type="building" color="255,230,230" fill="1" layer="-1.00" shape="1846.947638,967.497218 1849.225932,956.501846 1864.785185,959.710815 1862.506860,970.706181 1846.947638,967.497218"/>
    <poly id="104789164" type="building" color="255,230,230" fill="1" layer="-1.00" shape="1738.232292,946.280082 1740.380508,935.174075 1758.024885,938.573314 1755.336158,952.494744 1742.942681,950.105465 1743.483151,947.290033 1738.232292,946.280082"/>
    <poly id="104789165" type="building" color="255,230,230" fill="1" layer="-1.00" shape="1809.533566,970.492119 1811.861807,957.862098 1845.523370,964.057012 1843.216308,976.620212 1825.335467,973.332959 1824.914638,975.603034 1818.239894,974.377139 1818.646651,972.173838 1809.533566,970.492119"/>
    <poly id="104789167" type="building" color="255,230,230" fill="1" layer="-1.00" shape="1885.234616,969.957734 1883.256160,980.529225 1877.897665,979.541865 1868.532783,977.794484 1871.710752,960.779967 1886.434174,963.514717 1885.234616,969.957734"/>
    <poly id="104789173" type="building" color="255,230,230" fill="1" layer="-1.00" shape="1810.260044,917.153839 1809.458614,921.060059 1808.481536,925.845435 1790.793168,922.257219 1792.571598,913.554499 1810.260044,917.153839"/>
    <poly id="104789178" type="building" color="255,230,230" fill="1" layer="-1.00" shape="1897.133342,980.510497 1898.080426,975.436195 1899.153831,969.694214 1913.086049,972.288100 1916.250810,972.874095 1915.935160,974.576646 1914.230238,983.679252 1897.133342,980.510497"/>
    <poly id="104789180" type="building" color="255,230,230" fill="1" layer="-1.00" shape="1710.396682,939.614369 1712.506927,929.642601 1732.073445,933.755635 1729.963165,943.727395 1710.396682,939.614369"/>
    <poly id="104789185" type="building" color="255,230,230" fill="1" layer="-1.00" shape="1760.668249,910.031397 1758.621924,919.858313 1744.127010,916.844904 1746.138193,907.196038 1749.511930,907.892161 1750.018258,905.466031 1756.283777,906.760426 1761.139412,907.772205 1760.668249,910.031397"/>
    <poly id="105290177" type="building" color="255,230,230" fill="1" layer="-1.00" shape="2620.561543,1094.319633 2620.350413,1096.955624 2580.645672,1093.740116 2581.484062,1083.451895 2581.640686,1081.494365 2621.345516,1084.709881 2620.561543,1094.319633"/>
    <poly id="105290179" type="building" color="255,230,230" fill="1" layer="-1.00" shape="2783.460552,1210.022893 2800.092372,1207.392695 2801.710842,1217.581159 2785.079054,1220.211352 2784.820221,1218.544730 2783.460552,1210.022893"/>
    <poly id="105290181" type="building" color="255,230,230" fill="1" layer="-1.00" shape="2747.873442,1095.392958 2745.954198,1113.268642 2759.060576,1114.545253 2760.808321,1096.881577 2747.873442,1095.392958"/>
    <poly id="105290183" type="building" color="255,230,230" fill="1" layer="-1.00" shape="2651.646146,1240.011163 2625.420688,1244.218538 2624.681842,1239.641025 2623.758234,1233.908016 2649.976506,1229.689547 2651.646146,1240.011163"/>
    <poly id="105290184" type="building" color="255,230,230" fill="1" layer="-1.00" shape="2694.918648,1138.220516 2693.300737,1128.209975 2677.458863,1130.759190 2679.076803,1140.769726 2682.983403,1140.140996 2694.918648,1138.220516"/>
    <poly id="105290185" type="building" color="255,230,230" fill="1" layer="-1.00" shape="2700.472862,1105.396806 2692.251653,1123.344743 2693.300737,1128.209975 2677.458863,1130.759190 2676.104376,1121.825977 2687.143135,1099.106928 2700.472862,1105.396806"/>
    <poly id="105290186" type="building" color="255,230,230" fill="1" layer="-1.00" shape="2819.684257,1307.917106 2787.499866,1313.339477 2789.712980,1326.393875 2821.897295,1320.971516 2819.684257,1307.917106"/>
    <poly id="105290188" type="building" color="255,230,230" fill="1" layer="-1.00" shape="2654.972199,1342.341283 2631.082076,1346.404909 2633.037028,1357.870455 2656.934337,1353.817925 2654.972199,1342.341283"/>
    <poly id="105290189" type="building" color="255,230,230" fill="1" layer="-1.00" shape="2801.363006,1125.155528 2804.050315,1108.677413 2798.968127,1108.355031 2798.520867,1112.882176 2791.130094,1112.158546 2789.084318,1127.433067 2801.363006,1125.155528"/>
    <poly id="105290190" type="building" color="255,230,230" fill="1" layer="-1.00" shape="2723.888654,1329.729544 2710.740672,1331.944380 2706.040045,1303.991203 2719.188143,1301.787474 2722.958860,1324.196676 2723.888654,1329.729544"/>
    <poly id="105290192" type="building" color="255,230,230" fill="1" layer="-1.00" shape="2655.659506,1206.593806 2639.630943,1209.121722 2637.716470,1197.066722 2653.745067,1194.538801 2655.659506,1206.593806"/>
    <poly id="105290193" type="building" color="255,230,230" fill="1" layer="-1.00" shape="2581.484062,1083.451895 2580.645672,1093.740116 2580.482355,1095.808860 2558.994531,1094.080600 2559.996140,1081.712513 2581.484062,1083.451895"/>
    <poly id="105290194" type="building" color="255,230,230" fill="1" layer="-1.00" shape="2723.657592,1228.219653 2784.820221,1218.544730 2783.460552,1210.022893 2783.216677,1208.489626 2722.053936,1218.164567 2723.657592,1228.219653"/>
    <poly id="105290195" type="building" color="255,230,230" fill="1" layer="-1.00" shape="2578.268833,1334.408228 2580.663372,1365.606960 2569.126453,1366.480804 2566.731847,1335.282077 2568.240452,1335.175330 2578.268833,1334.408228"/>
    <poly id="105290196" type="building" color="255,230,230" fill="1" layer="-1.00" shape="2541.845337,1093.533974 2553.619245,1092.492250 2557.619402,1137.303876 2545.838405,1138.345623 2541.845337,1093.533974"/>
    <poly id="105290199" type="building" color="255,230,230" fill="1" layer="-1.00" shape="2564.448665,1137.807305 2564.498597,1126.366260 2600.395164,1126.518694 2600.352292,1137.948589 2564.448665,1137.807305"/>
    <poly id="105290200" type="building" color="255,230,230" fill="1" layer="-1.00" shape="2812.668022,1222.080538 2807.600049,1223.336897 2809.422246,1234.102627 2823.116259,1231.796694 2820.833107,1220.788376 2812.668022,1222.080538"/>
    <poly id="105290201" type="building" color="255,230,230" fill="1" layer="-1.00" shape="2621.345516,1084.709881 2621.495263,1082.819093 2645.865495,1084.690536 2647.592135,1094.889595 2636.980997,1097.237948 2636.496344,1094.894109 2620.561543,1094.319633 2621.345516,1084.709881"/>
    <poly id="105290202" type="building" color="255,230,230" fill="1" layer="-1.00" shape="2555.834542,1251.853457 2567.910462,1250.932725 2571.311892,1295.280049 2565.212949,1295.751797 2559.236071,1296.200774 2555.834542,1251.853457"/>
    <poly id="105290204" type="building" color="255,230,230" fill="1" layer="-1.00" shape="2567.366130,1220.515214 2581.556264,1218.284299 2579.914981,1207.906986 2565.717634,1210.137938 2566.234992,1213.371098 2566.841341,1217.226495 2567.366130,1220.515214"/>
    <poly id="105290207" type="building" color="255,230,230" fill="1" layer="-1.00" shape="2604.806102,1179.811869 2605.076791,1174.396016 2608.555728,1174.569646 2609.347236,1158.544546 2625.649375,1159.350850 2624.877707,1174.997834 2628.485994,1175.170906 2628.195393,1180.964871 2604.806102,1179.811869"/>
    <poly id="105290209" type="building" color="255,230,230" fill="1" layer="-1.00" shape="2837.759745,1318.311447 2835.532372,1305.257094 2821.845727,1307.562964 2819.684257,1307.917106 2821.897295,1320.971516 2837.759745,1318.311447"/>
    <poly id="105290214" type="building" color="255,230,230" fill="1" layer="-1.00" shape="2699.631990,1167.385526 2687.696760,1169.294877 2683.617859,1169.957719 2685.435291,1181.212638 2688.638060,1180.687078 2701.449340,1178.629331 2699.631990,1167.385526"/>
    <poly id="105290215" type="building" color="255,230,230" fill="1" layer="-1.00" shape="2809.422246,1234.102627 2811.310865,1245.268328 2825.004850,1242.962400 2823.116259,1231.796694 2809.422246,1234.102627"/>
    <poly id="105290217" type="building" color="255,230,230" fill="1" layer="-1.00" shape="2733.423072,1170.894754 2771.484355,1164.945930 2769.680347,1153.435201 2731.618985,1159.384038 2733.423072,1170.894754"/>
    <poly id="105290218" type="building" color="255,230,230" fill="1" layer="-1.00" shape="2798.968127,1108.355031 2799.725115,1100.713379 2774.856624,1098.265273 2774.175302,1105.128309 2778.151105,1105.522235 2777.628231,1110.828001 2791.130094,1112.158546 2798.520867,1112.882176 2798.968127,1108.355031"/>
    <poly id="105290220" type="building" color="255,230,230" fill="1" layer="-1.00" shape="2639.517772,1180.236643 2639.788496,1174.820792 2643.267432,1174.994444 2644.059042,1158.969350 2660.361174,1159.775759 2659.589406,1175.422738 2663.197740,1175.606951 2662.907052,1181.389796 2639.517772,1180.236643"/>
    <poly id="105290223" type="building" color="255,230,230" fill="1" layer="-1.00" shape="2807.706545,1159.116622 2801.363006,1125.155528 2789.084318,1127.433067 2795.427932,1161.394146 2797.531824,1161.006893 2807.706545,1159.116622"/>
    <poly id="105290224" type="building" color="255,230,230" fill="1" layer="-1.00" shape="2715.147307,1110.257644 2732.439419,1112.271819 2733.675924,1094.399132 2717.060634,1092.693289 2715.147307,1110.257644"/>
    <poly id="105290226" type="building" color="255,230,230" fill="1" layer="-1.00" shape="2799.122125,1182.791957 2813.719965,1180.081776 2809.731439,1158.740838 2807.706545,1159.116622 2797.531824,1161.006893 2800.181115,1175.193454 2797.782841,1175.637590 2799.122125,1182.791957"/>
    <poly id="105290228" type="building" color="255,230,230" fill="1" layer="-1.00" shape="2550.985588,1185.764985 2548.695599,1163.616180 2558.687183,1162.582366 2560.984318,1184.731143 2550.985588,1185.764985"/>
    <poly id="105290230" type="building" color="255,230,230" fill="1" layer="-1.00" shape="2706.040045,1303.991203 2719.188143,1301.787474 2711.411818,1255.869393 2717.536088,1254.608294 2716.663911,1249.108530 2697.046079,1250.851550 2706.040045,1303.991203"/>
    <poly id="105290232" type="building" color="255,230,230" fill="1" layer="-1.00" shape="2665.448878,1340.571710 2654.972199,1342.341283 2656.934337,1353.817925 2667.403758,1352.037269 2665.448878,1340.571710"/>
    <poly id="105290234" type="building" color="255,230,230" fill="1" layer="-1.00" shape="2569.754952,1178.999679 2570.018420,1173.583855 2573.504545,1173.757431 2574.295948,1157.732326 2590.598096,1158.538524 2589.819344,1174.185545 2593.427682,1174.369711 2593.144255,1180.152529 2569.754952,1178.999679"/>
    <poly id="105290237" type="building" color="255,230,230" fill="1" layer="-1.00" shape="2619.572496,1233.148225 2619.704044,1235.271256 2620.020341,1240.173069 2620.205925,1243.140860 2622.731454,1282.889069 2614.419397,1283.415014 2610.037108,1283.701228 2609.604608,1276.898684 2606.870797,1233.949305 2619.572496,1233.148225"/>
    <poly id="105290239" type="building" color="255,230,230" fill="1" layer="-1.00" shape="2774.175302,1105.128309 2773.101647,1115.928976 2759.060576,1114.545253 2760.808321,1096.881577 2774.856624,1098.265273 2774.175302,1105.128309"/>
    <poly id="105290246" type="building" color="255,230,230" fill="1" layer="-1.00" shape="2689.272893,1334.540573 2691.559615,1347.939278 2667.403758,1352.037269 2665.448878,1340.571710 2679.293269,1338.220272 2678.961374,1336.287135 2689.272893,1334.540573"/>
    <poly id="105290248" type="building" color="255,230,230" fill="1" layer="-1.00" shape="2716.004367,1197.221907 2739.846378,1193.492428 2737.953781,1181.459535 2714.111717,1185.189022 2716.004367,1197.221907"/>
    <poly id="105290252" type="building" color="255,230,230" fill="1" layer="-1.00" shape="2818.948224,1202.273401 2821.113536,1215.906174 2820.079419,1216.066363 2820.833107,1220.788376 2812.668022,1222.080538 2811.928991,1217.425173 2801.939852,1219.003308 2801.710842,1217.581159 2800.092372,1207.392695 2799.759829,1205.303896 2818.948224,1202.273401"/>
    <poly id="105290253" type="building" color="255,230,230" fill="1" layer="-1.00" shape="2625.290001,1211.386506 2610.934698,1213.651391 2609.286285,1203.274101 2613.803259,1202.553674 2613.537137,1200.875974 2623.382633,1199.320361 2625.290001,1211.386506"/>
    <poly id="105290256" type="building" color="255,230,230" fill="1" layer="-1.00" shape="2711.893414,1092.649322 2710.594090,1106.030462 2700.472862,1105.396806 2687.143135,1099.106928 2692.331775,1089.333241 2711.893414,1092.649322"/>
    <poly id="105290257" type="building" color="255,230,230" fill="1" layer="-1.00" shape="2614.419397,1283.415014 2614.743817,1288.528040 2580.532908,1290.680682 2579.775967,1278.776234 2609.604608,1276.898684 2610.037108,1283.701228 2614.419397,1283.415014"/>
    <poly id="105290259" type="building" color="255,230,230" fill="1" layer="-1.00" shape="2682.464039,1294.588843 2684.610782,1307.198756 2669.911814,1309.698487 2667.757852,1297.088612 2682.464039,1294.588843"/>
    <poly id="105290261" type="building" color="255,230,230" fill="1" layer="-1.00" shape="2639.630943,1209.121722 2637.716470,1197.066722 2623.382633,1199.320361 2625.290001,1211.386506 2639.630943,1209.121722"/>
    <poly id="105290262" type="building" color="255,230,230" fill="1" layer="-1.00" shape="2762.031096,1331.062832 2725.157755,1337.251111 2723.888654,1329.729544 2722.958860,1324.196676 2759.825102,1318.008414 2762.031096,1331.062832"/>
    <poly id="105290268" type="building" color="255,230,230" fill="1" layer="-1.00" shape="2818.142277,1285.653729 2821.845727,1307.562964 2835.532372,1305.257094 2831.836211,1283.358936 2818.142277,1285.653729"/>
    <poly id="105290269" type="building" color="255,230,230" fill="1" layer="-1.00" shape="2600.395164,1126.518694 2634.027968,1126.659129 2633.991197,1136.232224 2633.977839,1138.089055 2600.352292,1137.948589 2600.395164,1126.518694"/>
    <poly id="105290270" type="building" color="255,230,230" fill="1" layer="-1.00" shape="2552.023993,1207.652496 2563.236644,1206.502095 2560.984318,1184.731143 2550.985588,1185.764985 2549.771672,1185.892667 2552.023993,1207.652496"/>
    <poly id="105290271" type="building" color="255,230,230" fill="1" layer="-1.00" shape="2684.610782,1307.198756 2689.272893,1334.540573 2678.961374,1336.287135 2674.573949,1337.029174 2669.911814,1309.698487 2684.610782,1307.198756"/>
    <poly id="105290273" type="building" color="255,230,230" fill="1" layer="-1.00" shape="2571.311892,1295.280049 2577.137916,1294.842872 2580.165332,1334.266412 2578.268833,1334.408228 2568.240452,1335.175330 2565.212949,1295.751797 2571.311892,1295.280049"/>
    <poly id="105290275" type="building" color="255,230,230" fill="1" layer="-1.00" shape="2596.306483,1215.950877 2581.556264,1218.284299 2579.914981,1207.906986 2594.658042,1205.573592 2596.306483,1215.950877"/>
    <poly id="105290277" type="building" color="255,230,230" fill="1" layer="-1.00" shape="2747.873442,1095.392958 2745.954198,1113.268642 2732.439419,1112.271819 2733.675924,1094.399132 2747.873442,1095.392958"/>
    <poly id="105290280" type="building" color="255,230,230" fill="1" layer="-1.00" shape="2633.991197,1136.232224 2653.962413,1136.310834 2654.011897,1124.725255 2634.040590,1124.635526 2634.027968,1126.659129 2633.991197,1136.232224"/>
    <poly id="105290285" type="building" color="255,230,230" fill="1" layer="-1.00" shape="2596.306483,1215.950877 2610.934698,1213.651391 2609.286285,1203.274101 2594.658042,1205.573592 2596.306483,1215.950877"/>
    <poly id="105290286" type="building" color="255,230,230" fill="1" layer="-1.00" shape="2789.712980,1326.393875 2762.031096,1331.062832 2759.825102,1318.008414 2787.499866,1313.339477 2789.712980,1326.393875"/>
    <poly id="105290289" type="building" color="255,230,230" fill="1" layer="-1.00" shape="2688.294064,1202.102612 2712.465912,1198.215901 2710.131416,1183.761153 2706.088406,1184.412702 2689.672192,1187.053359 2685.959504,1187.647875 2688.294064,1202.102612"/>
    <poly id="105290293" type="building" color="255,230,230" fill="1" layer="-1.00" shape="2671.932285,1282.260505 2680.118364,1280.867969 2682.464039,1294.588843 2667.757852,1297.088612 2665.144013,1297.522640 2662.805530,1283.812860 2671.932285,1282.260505"/>
    <poly id="105290294" type="building" color="255,230,230" fill="1" layer="-1.00" shape="2654.555461,1251.161189 2666.288946,1249.174824 2671.932285,1282.260505 2662.805530,1283.812860 2660.198871,1284.246858 2654.555461,1251.161189"/>
    <poly id="105290295" type="building" color="255,230,230" fill="1" layer="-1.00" shape="2631.082076,1346.404909 2581.901616,1354.749926 2583.856670,1366.215455 2633.037028,1357.870455 2631.082076,1346.404909"/>
    <poly id="105290299" type="building" color="255,230,230" fill="1" layer="-1.00" shape="2655.659506,1206.593806 2653.745067,1194.538801 2653.560312,1193.383304 2670.924618,1190.638290 2673.023819,1203.859918 2655.659506,1206.593806"/>
    <poly id="105290300" type="building" color="255,230,230" fill="1" layer="-1.00" shape="2717.536088,1254.608294 2727.596948,1253.018568 2723.657592,1228.219653 2722.053936,1218.164567 2721.721413,1216.086891 2711.660485,1217.676628 2716.663911,1249.108530 2717.536088,1254.608294"/>
    <poly id="105290301" type="building" color="255,230,230" fill="1" layer="-1.00" shape="2831.836211,1283.358936 2825.004850,1242.962400 2811.310865,1245.268328 2818.142277,1285.653729 2831.836211,1283.358936"/>
    <poly id="105290303" type="building" color="255,230,230" fill="1" layer="-1.00" shape="2663.550917,1239.380480 2651.845665,1241.255543 2651.646146,1240.011163 2649.976506,1229.689547 2661.681782,1227.814480 2663.550917,1239.380480"/>
    <poly id="105291535" type="building" color="255,230,230" fill="1" layer="-1.00" shape="2940.567341,1134.431104 2955.888379,1131.073291 2958.520345,1143.025207 2943.199291,1146.371894 2940.567341,1134.431104"/>
    <poly id="105291537" type="building" color="255,230,230" fill="1" layer="-1.00" shape="2879.785739,1277.589938 2887.648699,1276.243605 2889.750248,1288.486886 2881.887305,1289.833217 2879.785739,1277.589938"/>
    <poly id="105291541" type="building" color="255,230,230" fill="1" layer="-1.00" shape="2896.981784,1195.227617 2908.936013,1192.729372 2906.675745,1181.987760 2894.721443,1184.474892 2896.981784,1195.227617"/>
    <poly id="105291545" type="building" color="255,230,230" fill="1" layer="-1.00" shape="2901.334680,1219.457808 2899.264985,1209.571482 2911.743333,1206.970889 2913.820144,1216.846069 2901.334680,1219.457808"/>
    <poly id="105291547" type="building" color="255,230,230" fill="1" layer="-1.00" shape="2849.742816,1240.374675 2847.680414,1230.532810 2859.792539,1228.011527 2861.854871,1237.842279 2849.742816,1240.374675"/>
    <poly id="105291550" type="building" color="255,230,230" fill="1" layer="-1.00" shape="2844.006964,1207.255867 2862.480303,1203.394778 2860.396109,1193.497412 2841.922738,1197.358508 2844.006964,1207.255867"/>
    <poly id="105291551" type="building" color="255,230,230" fill="1" layer="-1.00" shape="2936.038613,1092.923683 2949.270548,1090.030816 2951.499213,1100.127715 2938.267350,1103.031695 2936.038613,1092.923683"/>
    <poly id="105291555" type="building" color="255,230,230" fill="1" layer="-1.00" shape="2847.131156,1224.898191 2844.900105,1214.289897 2859.137409,1211.314575 2861.361296,1221.934025 2847.131156,1224.898191"/>
    <poly id="105291556" type="building" color="255,230,230" fill="1" layer="-1.00" shape="2888.884585,1156.148506 2886.861070,1146.973561 2898.764614,1144.364332 2897.943396,1140.621023 2902.854147,1139.543331 2905.698898,1152.472711 2888.884585,1156.148506"/>
    <poly id="105291557" type="building" color="255,230,230" fill="1" layer="-1.00" shape="2929.617976,1075.718188 2942.052998,1072.995554 2944.281732,1083.103569 2931.839594,1085.837346 2929.617976,1075.718188"/>
    <poly id="105291563" type="building" color="255,230,230" fill="1" layer="-1.00" shape="2834.374116,1158.921941 2847.499747,1156.418431 2849.742526,1168.060684 2836.616972,1170.575308 2834.374116,1158.921941"/>
    <poly id="105291565" type="building" color="255,230,230" fill="1" layer="-1.00" shape="2933.813368,1134.705157 2936.269423,1145.857306 2915.183312,1150.474473 2912.727216,1139.322334 2933.813368,1134.705157"/>
    <poly id="105291566" type="building" color="255,230,230" fill="1" layer="-1.00" shape="2847.686378,1093.976758 2866.582883,1089.835875 2868.921685,1100.432587 2850.018029,1104.573493 2847.686378,1093.976758"/>
    <poly id="105291571" type="building" color="255,230,230" fill="1" layer="-1.00" shape="2891.353597,1201.500736 2888.880381,1189.726051 2875.971223,1192.417528 2878.444467,1204.192206 2891.353597,1201.500736"/>
    <poly id="105291573" type="building" color="255,230,230" fill="1" layer="-1.00" shape="2832.211880,1137.784239 2843.957468,1135.208936 2846.567733,1147.071947 2834.829307,1149.636095 2832.211880,1137.784239"/>
    <poly id="105291576" type="building" color="255,230,230" fill="1" layer="-1.00" shape="2943.406409,1113.104784 2954.348018,1110.711122 2956.444843,1120.241560 2945.503253,1122.635219 2943.406409,1113.104784"/>
    <poly id="105291577" type="building" color="255,230,230" fill="1" layer="-1.00" shape="2907.629003,1234.084358 2905.691587,1224.864556 2915.262106,1222.865942 2917.199507,1232.085747 2907.629003,1234.084358"/>
    <poly id="105291581" type="building" color="255,230,230" fill="1" layer="-1.00" shape="2864.858936,1280.612696 2872.872698,1279.243445 2873.669205,1283.909685 2876.433827,1283.441745 2877.643147,1290.485516 2866.871970,1292.322673 2864.858936,1280.612696"/>
    <poly id="105291585" type="building" color="255,230,230" fill="1" layer="-1.00" shape="2825.352969,1097.699146 2838.721228,1094.772054 2840.876873,1104.557914 2827.508637,1107.485001 2825.352969,1097.699146"/>
    <poly id="105291588" type="building" color="255,230,230" fill="1" layer="-1.00" shape="2902.434899,1092.903536 2900.499319,1084.117346 2921.657492,1079.488691 2923.593039,1088.274888 2902.434899,1092.903536"/>
    <poly id="105291591" type="building" color="255,230,230" fill="1" layer="-1.00" shape="2828.596395,1119.565922 2840.392325,1116.990391 2842.841248,1128.109174 2831.052577,1130.695786 2828.596395,1119.565922"/>
    <poly id="105291593" type="building" color="255,230,230" fill="1" layer="-1.00" shape="2858.648006,1283.419462 2858.353172,1281.730757 2864.858936,1280.612696 2866.871970,1292.322673 2857.242547,1293.965844 2855.524377,1283.955693 2858.648006,1283.419462"/>
    <poly id="105291595" type="building" color="255,230,230" fill="1" layer="-1.00" shape="2871.468746,1160.305075 2881.390714,1158.126971 2879.301199,1148.652121 2869.379166,1150.819111 2871.468746,1160.305075"/>
    <poly id="105291600" type="building" color="255,230,230" fill="1" layer="-1.00" shape="2852.667776,1255.193804 2862.769407,1253.059351 2861.001090,1244.728295 2850.899444,1246.862751 2852.667776,1255.193804"/>
    <poly id="105291602" type="building" color="255,230,230" fill="1" layer="-1.00" shape="2860.886242,1162.619508 2858.796693,1153.144665 2869.379166,1150.819111 2871.468746,1160.305075 2860.886242,1162.619508"/>
    <poly id="105291605" type="building" color="255,230,230" fill="1" layer="-1.00" shape="2907.206263,1254.121538 2905.487687,1245.645711 2916.437021,1243.440948 2918.148442,1251.927927 2907.206263,1254.121538"/>