<?xml version="1.0" encoding="UTF-8"?>

<!-- generated on Mon Sep 28 03:16:01 2020 by Eclipse SUMO netconvert Version 1.2.0
<configuration xmlns:xsi="http://www.w3.org/2001/XMLSchema-instance" xsi:noNamespaceSchemaLocation="http://sumo.dlr.de/xsd/netconvertConfiguration.xsd">

    <input>
        <type-files value="/home/longpham211/Workspace/thesis/veins_simulator/src/sumo-1.2.0/data/typemap/osmNetconvert.typ.xml,/home/longpham211/Workspace/thesis/veins_simulator/src/sumo-1.2.0/data/typemap/osmNetconvertUrbanDe.typ.xml,/home/longpham211/Workspace/thesis/veins_simulator/src/sumo-1.2.0/data/typemap/osmPolyconvert.typ.xml"/>
        <osm-files value="/home/longpham211/Downloads/map.osm"/>
    </input>

    <output>
        <output-file value="highway.net.xml"/>
    </output>

    <projection>
        <proj.utm value="true"/>
    </projection>

    <processing>
        <geometry.remove value="true"/>
        <roundabouts.guess value="true"/>
    </processing>

    <tls_building>
        <tls.discard-simple value="true"/>
        <tls.join value="true"/>
        <tls.guess-signals value="true"/>
    </tls_building>

    <ramp_guessing>
        <ramps.guess value="true"/>
    </ramp_guessing>

    <junctions>
        <junctions.join value="true"/>
    </junctions>

</configuration>
-->

<net version="1.1" junctionCornerDetail="5" limitTurnSpeed="5.50" xmlns:xsi="http://www.w3.org/2001/XMLSchema-instance" xsi:noNamespaceSchemaLocation="http://sumo.dlr.de/xsd/net_file.xsd">

    <location netOffset="-468822.91,-5524189.51" convBoundary="0.00,0.00,4958.73,3015.55" origBoundary="8.543860,49.651591,8.635076,50.019495" projParameter="+proj=utm +zone=32 +ellps=WGS84 +datum=WGS84 +units=m +no_defs"/>

    <type id="highway.bridleway" priority="1" numLanes="1" speed="2.78" allow="pedestrian" oneway="1" width="2.00"/>
    <type id="highway.bus_guideway" priority="1" numLanes="1" speed="13.89" allow="bus" oneway="1"/>
    <type id="highway.cycleway" priority="1" numLanes="1" speed="8.33" allow="bicycle" oneway="0" width="1.00"/>
    <type id="highway.footway" priority="1" numLanes="1" speed="2.78" allow="pedestrian" oneway="1" width="2.00"/>
    <type id="highway.ford" priority="1" numLanes="1" speed="2.78" allow="army" oneway="0"/>
    <type id="highway.living_street" priority="2" numLanes="1" speed="2.78" disallow="tram rail_urban rail rail_electric ship" oneway="0"/>
    <type id="highway.motorway" priority="14" numLanes="2" speed="27.78" allow="private emergency authority army vip passenger hov taxi bus coach delivery truck trailer motorcycle evehicle custom1 custom2" oneway="1"/>
    <type id="highway.motorway_link" priority="9" numLanes="1" speed="16.67" allow="private emergency authority army vip passenger hov taxi bus coach delivery truck trailer motorcycle evehicle custom1 custom2" oneway="1"/>
    <type id="highway.path" priority="1" numLanes="1" speed="2.78" allow="bicycle pedestrian" oneway="1" width="2.00"/>
    <type id="highway.pedestrian" priority="1" numLanes="1" speed="2.78" allow="pedestrian" oneway="1" width="2.00"/>
    <type id="highway.primary" priority="12" numLanes="2" speed="13.89" disallow="tram rail_urban rail rail_electric ship" oneway="0"/>
    <type id="highway.primary_link" priority="7" numLanes="1" speed="13.89" disallow="tram rail_urban rail rail_electric ship" oneway="0"/>
    <type id="highway.raceway" priority="15" numLanes="2" speed="83.33" allow="vip" oneway="0"/>
    <type id="highway.residential" priority="3" numLanes="1" speed="13.89" disallow="tram rail_urban rail rail_electric ship" oneway="0"/>
    <type id="highway.secondary" priority="11" numLanes="2" speed="13.89" disallow="tram rail_urban rail rail_electric ship" oneway="0"/>
    <type id="highway.secondary_link" priority="6" numLanes="1" speed="13.89" disallow="tram rail_urban rail rail_electric ship" oneway="0"/>
    <type id="highway.service" priority="1" numLanes="1" speed="5.56" allow="delivery bicycle pedestrian" oneway="0"/>
    <type id="highway.stairs" priority="1" numLanes="1" speed="1.39" allow="pedestrian" oneway="1" width="2.00"/>
    <type id="highway.step" priority="1" numLanes="1" speed="1.39" allow="pedestrian" oneway="1" width="2.00"/>
    <type id="highway.steps" priority="1" numLanes="1" speed="1.39" allow="pedestrian" oneway="1" width="2.00"/>
    <type id="highway.tertiary" priority="10" numLanes="1" speed="13.89" disallow="tram rail_urban rail rail_electric ship" oneway="0"/>
    <type id="highway.tertiary_link" priority="5" numLanes="1" speed="13.89" disallow="tram rail_urban rail rail_electric ship" oneway="0"/>
    <type id="highway.track" priority="1" numLanes="1" speed="5.56" disallow="tram rail_urban rail rail_electric ship" oneway="0"/>
    <type id="highway.trunk" priority="13" numLanes="2" speed="13.89" disallow="tram rail_urban rail rail_electric bicycle pedestrian ship" oneway="0"/>
    <type id="highway.trunk_link" priority="8" numLanes="1" speed="13.89" disallow="tram rail_urban rail rail_electric bicycle pedestrian ship" oneway="0"/>
    <type id="highway.unclassified" priority="4" numLanes="1" speed="13.89" disallow="tram rail_urban rail rail_electric ship" oneway="0"/>
    <type id="highway.unsurfaced" priority="1" numLanes="1" speed="8.33" disallow="tram rail_urban rail rail_electric ship" oneway="0"/>
    <type id="railway.light_rail" priority="19" numLanes="1" speed="27.78" allow="rail_urban" oneway="1"/>
    <type id="railway.preserved" priority="16" numLanes="1" speed="27.78" allow="rail" oneway="1"/>
    <type id="railway.rail" priority="20" numLanes="1" speed="83.33" allow="rail rail_electric" oneway="1"/>
    <type id="railway.subway" priority="18" numLanes="1" speed="27.78" allow="rail_urban" oneway="1"/>
    <type id="railway.tram" priority="17" numLanes="1" speed="13.89" allow="tram" oneway="1"/>

    <edge id=":1020619375_0" function="internal">
        <lane id=":1020619375_0_0" index="0" allow="delivery bicycle pedestrian" speed="5.56" length="5.96" shape="2828.67,2420.05 2827.99,2414.13"/>
    </edge>
    <edge id=":1020619375_1" function="internal">
        <lane id=":1020619375_1_0" index="0" allow="delivery bicycle pedestrian" speed="5.01" length="5.04" shape="2828.67,2420.05 2828.71,2418.66 2829.19,2417.64 2830.10,2416.97 2831.45,2416.66"/>
    </edge>
    <edge id=":1020619377_0" function="internal">
        <lane id=":1020619377_0_0" index="0" allow="delivery bicycle pedestrian" speed="5.56" length="6.19" shape="2844.14,2412.47 2844.81,2418.62"/>
    </edge>
    <edge id=":1020619377_1" function="internal">
        <lane id=":1020619377_1_0" index="0" allow="delivery bicycle pedestrian" speed="5.10" length="5.03" shape="2841.35,2415.85 2842.73,2415.92 2843.78,2416.41 2844.47,2417.31 2844.81,2418.62"/>
    </edge>
    <edge id=":1126552020_0" function="internal">
        <lane id=":1126552020_0_0" index="0" allow="delivery bicycle pedestrian" speed="3.65" length="4.67" shape="1362.86,1484.43 1362.73,1485.86 1362.21,1486.59 1361.32,1486.62 1360.05,1485.95"/>
    </edge>
    <edge id=":1126552065_0" function="internal">
        <lane id=":1126552065_0_0" index="0" allow="delivery bicycle pedestrian" speed="4.95" length="5.12" shape="1464.04,1512.70 1463.80,1511.30 1463.16,1510.36 1462.13,1509.87 1460.71,1509.84"/>
    </edge>
    <edge id=":1126552065_1" function="internal">
        <lane id=":1126552065_1_0" index="0" allow="delivery bicycle pedestrian" speed="5.56" length="10.49" shape="1464.04,1512.70 1464.36,1509.78 1465.51,1507.70 1467.49,1506.46 1470.31,1506.06"/>
    </edge>
    <edge id=":1126552065_2" function="internal">
        <lane id=":1126552065_2_0" index="0" disallow="tram rail_urban rail rail_electric ship" speed="3.65" length="4.67" shape="1464.04,1512.70 1464.81,1511.47 1465.60,1511.05 1466.41,1511.43 1467.24,1512.60"/>
    </edge>
    <edge id=":1126552065_3" function="internal">
        <lane id=":1126552065_3_0" index="0" disallow="tram rail_urban rail rail_electric ship" speed="5.07" length="5.20" shape="1470.30,1509.26 1468.92,1509.46 1467.96,1510.09 1467.40,1511.13 1467.24,1512.60"/>
    </edge>
    <edge id=":1126552065_4" function="internal">
        <lane id=":1126552065_4_0" index="0" allow="delivery bicycle pedestrian" speed="5.56" length="9.61" shape="1470.30,1509.26 1467.44,1509.26 1465.49,1509.32 1463.55,1509.50 1460.71,1509.84"/>
    </edge>
    <edge id=":1126552065_5" function="internal">
        <lane id=":1126552065_5_0" index="0" allow="delivery bicycle pedestrian" speed="3.65" length="4.67" shape="1470.30,1509.26 1469.10,1508.45 1468.70,1507.65 1469.11,1506.85 1470.31,1506.06"/>
    </edge>
    <edge id=":1126552065_6" function="internal">
        <lane id=":1126552065_6_0" index="0" allow="delivery bicycle pedestrian" speed="5.56" length="10.02" shape="1460.32,1506.67 1463.27,1506.31 1465.30,1506.12 1467.34,1506.06 1470.31,1506.06"/>
    </edge>
    <edge id=":1126552065_7" function="internal">
        <lane id=":1126552065_7_0" index="0" disallow="tram rail_urban rail rail_electric ship" speed="5.56" length="10.63" shape="1460.32,1506.67 1463.27,1506.73 1465.41,1507.73 1466.73,1509.69 1467.24,1512.60"/>
    </edge>
    <edge id=":1126552065_8" function="internal">
        <lane id=":1126552065_8_0" index="0" allow="delivery bicycle pedestrian" speed="3.65" length="4.67" shape="1460.32,1506.67 1461.61,1507.31 1462.10,1508.06 1461.81,1508.90 1460.71,1509.84"/>
    </edge>
    <edge id=":1126552125_0" function="internal">
        <lane id=":1126552125_0_0" index="0" disallow="tram rail_urban rail rail_electric ship" speed="13.89" length="9.14" shape="1525.62,1448.24 1524.28,1457.28"/>
    </edge>
    <edge id=":1126552125_1" function="internal">
        <lane id=":1126552125_1_0" index="0" allow="delivery bicycle pedestrian" speed="7.05" length="4.74" shape="1525.62,1448.24 1524.77,1450.74 1523.40,1452.32"/>
    </edge>
    <edge id=":1126552125_2" function="internal">
        <lane id=":1126552125_2_0" index="0" disallow="tram rail_urban rail rail_electric ship" speed="3.65" length="2.34" shape="1525.62,1448.24 1524.62,1449.28 1523.76,1449.53"/>
    </edge>
    <edge id=":1126552125_9" function="internal">
        <lane id=":1126552125_9_0" index="0" allow="delivery bicycle pedestrian" speed="7.05" length="5.31" shape="1523.40,1452.32 1523.28,1452.45 1521.14,1453.37 1518.34,1453.49"/>
    </edge>
    <edge id=":1126552125_10" function="internal">
        <lane id=":1126552125_10_0" index="0" disallow="tram rail_urban rail rail_electric ship" speed="3.65" length="2.34" shape="1523.76,1449.53 1523.04,1449.00 1522.47,1447.68"/>
    </edge>
    <edge id=":1126552125_3" function="internal">
        <lane id=":1126552125_3_0" index="0" disallow="tram rail_urban rail rail_electric ship" speed="5.28" length="5.21" shape="1518.62,1450.30 1520.11,1450.25 1521.24,1449.79 1522.03,1448.93 1522.47,1447.68"/>
    </edge>
    <edge id=":1126552125_4" function="internal">
        <lane id=":1126552125_4_0" index="0" disallow="tram rail_urban rail rail_electric ship" speed="6.84" length="10.32" shape="1518.62,1450.30 1521.38,1450.95 1523.25,1452.33 1524.21,1454.44 1524.28,1457.28"/>
    </edge>
    <edge id=":1126552125_5" function="internal">
        <lane id=":1126552125_5_0" index="0" allow="delivery bicycle pedestrian" speed="3.65" length="4.67" shape="1518.62,1450.30 1519.74,1451.20 1520.07,1452.03 1519.60,1452.80 1518.34,1453.49"/>
    </edge>
    <edge id=":1126552125_6" function="internal">
        <lane id=":1126552125_6_0" index="0" allow="delivery bicycle pedestrian" speed="5.01" length="5.04" shape="1521.10,1456.89 1521.07,1455.51 1520.60,1454.48 1519.69,1453.80 1518.34,1453.49"/>
    </edge>
    <edge id=":1126552125_7" function="internal">
        <lane id=":1126552125_7_0" index="0" disallow="tram rail_urban rail rail_electric ship" speed="13.89" length="9.32" shape="1521.10,1456.89 1522.47,1447.68"/>
    </edge>
    <edge id=":1126552125_8" function="internal">
        <lane id=":1126552125_8_0" index="0" disallow="tram rail_urban rail rail_electric ship" speed="3.65" length="2.34" shape="1521.10,1456.89 1522.04,1455.80 1522.88,1455.50"/>
    </edge>
    <edge id=":1126552125_11" function="internal">
        <lane id=":1126552125_11_0" index="0" disallow="tram rail_urban rail rail_electric ship" speed="3.65" length="2.34" shape="1522.88,1455.50 1523.63,1455.99 1524.28,1457.28"/>
    </edge>
    <edge id=":1126552144_0" function="internal">
        <lane id=":1126552144_0_0" index="0" allow="delivery bicycle pedestrian" speed="5.56" length="8.00" shape="1360.82,1450.05 1359.57,1450.40 1358.25,1451.44 1356.87,1453.17 1355.43,1455.58"/>
    </edge>
    <edge id=":1126552144_1" function="internal">
        <lane id=":1126552144_1_0" index="0" disallow="tram rail_urban rail rail_electric ship" speed="5.56" length="10.52" shape="1360.82,1450.05 1350.31,1450.49"/>
    </edge>
    <edge id=":1126552144_2" function="internal">
        <lane id=":1126552144_2_0" index="0" allow="delivery bicycle pedestrian" speed="3.65" length="4.67" shape="1360.82,1450.05 1359.62,1449.26 1359.22,1448.46 1359.61,1447.66 1360.81,1446.85"/>
    </edge>
    <edge id=":1126552144_3" function="internal">
        <lane id=":1126552144_3_0" index="0" allow="delivery bicycle pedestrian" speed="5.56" length="10.69" shape="1350.13,1447.29 1360.81,1446.85"/>
    </edge>
    <edge id=":1126552144_4" function="internal">
        <lane id=":1126552144_4_0" index="0" allow="delivery bicycle pedestrian" speed="5.56" length="13.60" shape="1350.13,1447.29 1354.22,1447.59 1356.47,1449.07 1356.87,1451.74 1355.43,1455.58"/>
    </edge>
    <edge id=":1126552144_5" function="internal">
        <lane id=":1126552144_5_0" index="0" disallow="tram rail_urban rail rail_electric ship" speed="3.65" length="4.67" shape="1350.13,1447.29 1351.37,1448.02 1351.82,1448.80 1351.46,1449.62 1350.31,1450.49"/>
    </edge>
    <edge id=":1126552144_6" function="internal">
        <lane id=":1126552144_6_0" index="0" disallow="tram rail_urban rail rail_electric ship" speed="4.67" length="5.88" shape="1352.61,1454.07 1353.23,1452.41 1353.06,1451.26 1352.08,1450.62 1350.31,1450.49"/>
    </edge>
    <edge id=":1126552144_7" function="internal">
        <lane id=":1126552144_7_0" index="0" allow="delivery bicycle pedestrian" speed="5.56" length="11.41" shape="1352.61,1454.07 1354.56,1450.92 1356.58,1448.67 1358.66,1447.31 1360.81,1446.85"/>
    </edge>
    <edge id=":1126552144_8" function="internal">
        <lane id=":1126552144_8_0" index="0" allow="delivery bicycle pedestrian" speed="3.65" length="4.67" shape="1352.61,1454.07 1353.88,1453.39 1354.77,1453.41 1355.29,1454.14 1355.43,1455.58"/>
    </edge>
    <edge id=":1126552173_0" function="internal">
        <lane id=":1126552173_0_0" index="0" allow="delivery bicycle pedestrian" speed="5.09" length="4.95" shape="1515.81,1512.45 1515.57,1511.13 1514.96,1510.18 1513.99,1509.61 1512.66,1509.41"/>
    </edge>
    <edge id=":1126552173_1" function="internal">
        <lane id=":1126552173_1_0" index="0" disallow="tram rail_urban rail rail_electric ship" speed="13.89" length="9.21" shape="1515.81,1512.45 1515.71,1509.72 1515.69,1507.85 1515.79,1505.98 1516.00,1503.26"/>
    </edge>
    <edge id=":1126552173_2" function="internal">
        <lane id=":1126552173_2_0" index="0" disallow="tram rail_urban rail rail_electric ship" speed="3.65" length="2.34" shape="1515.81,1512.45 1516.56,1511.22 1517.35,1510.79"/>
    </edge>
    <edge id=":1126552173_9" function="internal">
        <lane id=":1126552173_9_0" index="0" disallow="tram rail_urban rail rail_electric ship" speed="3.65" length="2.34" shape="1517.35,1510.79 1518.16,1511.16 1519.01,1512.33"/>
    </edge>
    <edge id=":1126552173_3" function="internal">
        <lane id=":1126552173_3_0" index="0" disallow="tram rail_urban rail rail_electric ship" speed="13.89" length="8.82" shape="1519.19,1503.52 1518.98,1506.13 1518.90,1507.92 1518.91,1509.71 1519.01,1512.33"/>
    </edge>
    <edge id=":1126552173_4" function="internal">
        <lane id=":1126552173_4_0" index="0" allow="delivery bicycle pedestrian" speed="6.97" length="4.90" shape="1519.19,1503.52 1518.60,1506.11 1517.31,1507.95"/>
    </edge>
    <edge id=":1126552173_5" function="internal">
        <lane id=":1126552173_5_0" index="0" disallow="tram rail_urban rail rail_electric ship" speed="3.65" length="2.34" shape="1519.19,1503.52 1518.29,1504.65 1517.46,1504.98"/>
    </edge>
    <edge id=":1126552173_10" function="internal">
        <lane id=":1126552173_10_0" index="0" allow="delivery bicycle pedestrian" speed="6.97" length="4.96" shape="1517.31,1507.95 1515.33,1509.05 1512.66,1509.41"/>
    </edge>
    <edge id=":1126552173_11" function="internal">
        <lane id=":1126552173_11_0" index="0" disallow="tram rail_urban rail rail_electric ship" speed="3.65" length="2.34" shape="1517.46,1504.98 1516.70,1504.52 1516.00,1503.26"/>
    </edge>
    <edge id=":1126552173_6" function="internal">
        <lane id=":1126552173_6_0" index="0" disallow="tram rail_urban rail rail_electric ship" speed="5.17" length="4.99" shape="1512.67,1506.21 1514.04,1506.03 1515.05,1505.48 1515.70,1504.55 1516.00,1503.26"/>
    </edge>
    <edge id=":1126552173_7" function="internal">
        <lane id=":1126552173_7_0" index="0" disallow="tram rail_urban rail rail_electric ship" speed="6.90" length="9.95" shape="1512.67,1506.21 1515.35,1506.60 1517.30,1507.75 1518.52,1509.66 1519.01,1512.33"/>
    </edge>
    <edge id=":1126552173_8" function="internal">
        <lane id=":1126552173_8_0" index="0" allow="delivery bicycle pedestrian" speed="3.65" length="4.67" shape="1512.67,1506.21 1513.87,1507.02 1514.26,1507.82 1513.86,1508.62 1512.66,1509.41"/>
    </edge>
    <edge id=":1126552179_0" function="internal">
        <lane id=":1126552179_0_0" index="0" allow="delivery bicycle pedestrian" speed="3.65" length="4.67" shape="1405.81,1516.68 1404.52,1516.04 1404.02,1515.29 1404.32,1514.45 1405.41,1513.51"/>
    </edge>
    <edge id=":1284526939_0" function="internal">
        <lane id=":1284526939_0_0" index="0" disallow="tram rail_urban rail rail_electric ship" speed="5.56" length="41.26" shape="839.57,1403.53 831.72,1403.68 818.96,1404.28 806.20,1404.98 798.35,1405.44"/>
    </edge>
    <edge id=":1284526939_1" function="internal">
        <lane id=":1284526939_1_0" index="0" disallow="tram rail_urban rail rail_electric ship" speed="5.56" length="41.70" shape="839.57,1403.53 798.14,1398.72"/>
    </edge>
    <edge id=":1284526939_2" function="internal">
        <lane id=":1284526939_2_0" index="0" disallow="tram rail_urban rail rail_electric ship" speed="3.65" length="4.68" shape="839.57,1403.53 838.47,1402.59 838.16,1401.74 838.66,1400.99 839.95,1400.34"/>
    </edge>
    <edge id=":1284526939_3" function="internal">
        <lane id=":1284526939_3_0" index="0" disallow="tram rail_urban rail rail_electric ship" speed="5.56" length="41.70" shape="798.52,1395.54 839.95,1400.34"/>
    </edge>
    <edge id=":1284526939_4" function="internal">
        <lane id=":1284526939_4_0" index="0" disallow="tram rail_urban rail rail_electric ship" speed="5.56" length="13.87" shape="798.52,1395.54 801.57,1397.32 802.55,1400.61 801.47,1403.84 798.35,1405.44"/>
    </edge>
    <edge id=":1284526939_5" function="internal">
        <lane id=":1284526939_5_0" index="0" disallow="tram rail_urban rail rail_electric ship" speed="3.65" length="4.67" shape="798.52,1395.54 799.62,1396.48 799.92,1397.32 799.43,1398.07 798.14,1398.72"/>
    </edge>
    <edge id=":1284526939_6" function="internal">
        <lane id=":1284526939_6_0" index="0" disallow="tram rail_urban rail rail_electric ship" speed="5.56" length="19.96" shape="798.16,1402.25 805.48,1401.58 807.92,1400.77 805.47,1399.81 798.14,1398.72"/>
    </edge>
    <edge id=":1284526939_7" function="internal">
        <lane id=":1284526939_7_0" index="0" disallow="tram rail_urban rail rail_electric ship" speed="5.56" length="41.83" shape="798.16,1402.25 806.09,1401.79 819.05,1401.09 832.01,1400.49 839.95,1400.34"/>
    </edge>
    <edge id=":1284526939_8" function="internal">
        <lane id=":1284526939_8_0" index="0" disallow="tram rail_urban rail rail_electric ship" speed="3.65" length="4.67" shape="798.16,1402.25 799.41,1402.97 799.85,1403.75 799.50,1404.57 798.35,1405.44"/>
    </edge>
    <edge id=":1316383765_0" function="internal">
        <lane id=":1316383765_0_0" index="0" disallow="tram rail_urban rail rail_electric ship" speed="13.89" length="2.99" shape="3650.30,2275.90 3648.04,2277.87"/>
        <lane id=":1316383765_0_1" index="1" disallow="tram rail_urban rail rail_electric ship" speed="13.89" length="2.99" shape="3648.20,2273.49 3645.94,2275.46"/>
    </edge>
    <edge id=":1316383765_2" function="internal">
        <lane id=":1316383765_2_0" index="0" disallow="tram rail_urban rail rail_electric ship" speed="3.65" length="2.34" shape="3648.20,2273.49 3646.77,2273.68 3645.94,2273.34"/>
    </edge>
    <edge id=":1316383765_6" function="internal">
        <lane id=":1316383765_6_0" index="0" disallow="tram rail_urban rail rail_electric ship" speed="3.65" length="2.34" shape="3645.94,2273.34 3645.72,2272.47 3646.10,2271.08"/>
    </edge>
    <edge id=":1316383765_3" function="internal">
        <lane id=":1316383765_3_0" index="0" disallow="tram rail_urban rail rail_electric ship" speed="13.89" length="3.00" shape="3641.73,2270.64 3643.99,2268.67"/>
        <lane id=":1316383765_3_1" index="1" disallow="tram rail_urban rail rail_electric ship" speed="13.89" length="3.00" shape="3643.84,2273.05 3646.10,2271.08"/>
    </edge>
    <edge id=":1316383765_5" function="internal">
        <lane id=":1316383765_5_0" index="0" disallow="tram rail_urban rail rail_electric ship" speed="3.65" length="2.34" shape="3643.84,2273.05 3645.27,2272.86 3646.09,2273.20"/>
    </edge>
    <edge id=":1316383765_7" function="internal">
        <lane id=":1316383765_7_0" index="0" disallow="tram rail_urban rail rail_electric ship" speed="3.65" length="2.34" shape="3646.09,2273.20 3646.32,2274.07 3645.94,2275.46"/>
    </edge>
    <edge id=":1326916958_0" function="internal">
        <lane id=":1326916958_0_0" index="0" disallow="tram rail_urban rail rail_electric ship" speed="5.56" length="16.16" shape="1313.42,1585.32 1313.30,1569.16"/>
    </edge>
    <edge id=":1326916958_1" function="internal">
        <lane id=":1326916958_1_0" index="0" disallow="tram rail_urban rail rail_electric ship" speed="5.56" length="16.59" shape="1313.42,1585.32 1313.95,1582.11 1315.61,1578.80 1318.37,1575.38 1322.25,1571.87"/>
    </edge>
    <edge id=":1326916958_2" function="internal">
        <lane id=":1326916958_2_0" index="0" disallow="tram rail_urban rail rail_electric ship" speed="3.65" length="4.67" shape="1313.42,1585.32 1314.21,1584.12 1315.01,1583.71 1315.81,1584.10 1316.62,1585.30"/>
    </edge>
    <edge id=":1326916958_3" function="internal">
        <lane id=":1326916958_3_0" index="0" disallow="tram rail_urban rail rail_electric ship" speed="5.56" length="13.72" shape="1324.26,1574.36 1320.90,1577.36 1318.51,1580.18 1317.08,1582.83 1316.62,1585.30"/>
    </edge>
    <edge id=":1326916958_4" function="internal">
        <lane id=":1326916958_4_0" index="0" disallow="tram rail_urban rail rail_electric ship" speed="5.56" length="18.01" shape="1324.26,1574.36 1319.50,1577.31 1316.09,1577.42 1314.03,1574.71 1313.30,1569.16"/>
    </edge>
    <edge id=":1326916958_5" function="internal">
        <lane id=":1326916958_5_0" index="0" disallow="tram rail_urban rail rail_electric ship" speed="3.65" length="4.67" shape="1324.26,1574.36 1322.82,1574.49 1322.01,1574.12 1321.82,1573.24 1322.25,1571.87"/>
    </edge>
    <edge id=":1326916958_6" function="internal">
        <lane id=":1326916958_6_0" index="0" disallow="tram rail_urban rail rail_electric ship" speed="5.54" length="9.45" shape="1316.50,1569.14 1316.88,1572.05 1317.97,1573.47 1319.76,1573.41 1322.25,1571.87"/>
    </edge>
    <edge id=":1326916958_7" function="internal">
        <lane id=":1326916958_7_0" index="0" disallow="tram rail_urban rail rail_electric ship" speed="5.56" length="16.16" shape="1316.50,1569.14 1316.62,1585.30"/>
    </edge>
    <edge id=":1326916958_8" function="internal">
        <lane id=":1326916958_8_0" index="0" disallow="tram rail_urban rail rail_electric ship" speed="3.65" length="4.67" shape="1316.50,1569.14 1315.71,1570.34 1314.91,1570.75 1314.11,1570.35 1313.30,1569.16"/>
    </edge>
    <edge id=":1332094260_0" function="internal">
        <lane id=":1332094260_0_0" index="0" allow="delivery bicycle pedestrian" speed="3.65" length="4.67" shape="4125.80,695.00 4126.47,693.72 4127.22,693.24 4128.06,693.55 4128.98,694.65"/>
    </edge>
    <edge id=":1332094277_0" function="internal">
        <lane id=":1332094277_0_0" index="0" allow="delivery bicycle pedestrian" speed="5.12" length="5.08" shape="3966.92,1016.69 3966.61,1015.31 3965.96,1014.35 3964.95,1013.81 3963.60,1013.68"/>
    </edge>
    <edge id=":1332094277_1" function="internal">
        <lane id=":1332094277_1_0" index="0" allow="delivery bicycle pedestrian" speed="5.56" length="10.23" shape="3966.92,1016.69 3967.08,1013.89 3968.11,1011.82 3969.99,1010.49 3972.74,1009.90"/>
    </edge>
    <edge id=":1332094277_2" function="internal">
        <lane id=":1332094277_2_0" index="0" allow="delivery bicycle pedestrian" speed="3.65" length="4.67" shape="3966.92,1016.69 3967.62,1015.43 3968.38,1014.97 3969.21,1015.30 3970.11,1016.43"/>
    </edge>
    <edge id=":1332094277_3" function="internal">
        <lane id=":1332094277_3_0" index="0" allow="delivery bicycle pedestrian" speed="5.02" length="5.02" shape="3972.96,1013.10 3971.62,1013.38 3970.69,1014.04 3970.19,1015.05 3970.11,1016.43"/>
    </edge>
    <edge id=":1332094277_4" function="internal">
        <lane id=":1332094277_4_0" index="0" allow="delivery bicycle pedestrian" speed="5.56" length="9.38" shape="3972.96,1013.10 3963.60,1013.68"/>
    </edge>
    <edge id=":1332094277_5" function="internal">
        <lane id=":1332094277_5_0" index="0" allow="delivery bicycle pedestrian" speed="3.65" length="4.67" shape="3972.96,1013.10 3971.71,1012.38 3971.26,1011.61 3971.60,1010.78 3972.74,1009.90"/>
    </edge>
    <edge id=":1332094277_6" function="internal">
        <lane id=":1332094277_6_0" index="0" allow="delivery bicycle pedestrian" speed="5.56" length="9.33" shape="3963.43,1010.49 3972.74,1009.90"/>
    </edge>
    <edge id=":1332094277_7" function="internal">
        <lane id=":1332094277_7_0" index="0" allow="delivery bicycle pedestrian" speed="5.56" length="10.13" shape="3963.43,1010.49 3966.15,1010.73 3968.17,1011.80 3969.49,1013.70 3970.11,1016.43"/>
    </edge>
    <edge id=":1332094277_8" function="internal">
        <lane id=":1332094277_8_0" index="0" allow="delivery bicycle pedestrian" speed="3.65" length="4.67" shape="3963.43,1010.49 3964.67,1011.22 3965.11,1011.99 3964.76,1012.82 3963.60,1013.68"/>
    </edge>
    <edge id=":1332094278_0" function="internal">
        <lane id=":1332094278_0_0" index="0" allow="delivery bicycle pedestrian" speed="5.05" length="5.00" shape="3970.47,1058.32 3970.16,1056.99 3969.49,1056.07 3968.47,1055.58 3967.10,1055.51"/>
    </edge>
    <edge id=":1332094278_1" function="internal">
        <lane id=":1332094278_1_0" index="0" allow="delivery bicycle pedestrian" speed="5.56" length="9.39" shape="3970.47,1058.32 3969.65,1048.96"/>
    </edge>
    <edge id=":1332094278_2" function="internal">
        <lane id=":1332094278_2_0" index="0" allow="delivery bicycle pedestrian" speed="3.65" length="4.67" shape="3970.47,1058.32 3971.16,1057.05 3971.92,1056.58 3972.75,1056.90 3973.66,1058.03"/>
    </edge>
    <edge id=":1332094278_3" function="internal">
        <lane id=":1332094278_3_0" index="0" allow="delivery bicycle pedestrian" speed="5.56" length="9.37" shape="3972.84,1048.69 3973.66,1058.03"/>
    </edge>
    <edge id=":1332094278_4" function="internal">
        <lane id=":1332094278_4_0" index="0" allow="delivery bicycle pedestrian" speed="5.56" length="10.15" shape="3972.84,1048.69 3972.68,1051.47 3971.67,1053.53 3969.81,1054.88 3967.10,1055.51"/>
    </edge>
    <edge id=":1332094278_5" function="internal">
        <lane id=":1332094278_5_0" index="0" allow="delivery bicycle pedestrian" speed="3.65" length="4.67" shape="3972.84,1048.69 3972.14,1049.96 3971.38,1050.42 3970.55,1050.09 3969.65,1048.96"/>
    </edge>
    <edge id=":1332094278_6" function="internal">
        <lane id=":1332094278_6_0" index="0" allow="delivery bicycle pedestrian" speed="5.04" length="5.00" shape="3966.82,1052.32 3968.16,1052.01 3969.07,1051.35 3969.57,1050.33 3969.65,1048.96"/>
    </edge>
    <edge id=":1332094278_7" function="internal">
        <lane id=":1332094278_7_0" index="0" allow="delivery bicycle pedestrian" speed="5.56" length="10.14" shape="3966.82,1052.32 3969.60,1052.47 3971.66,1053.47 3973.02,1055.32 3973.66,1058.03"/>
    </edge>
    <edge id=":1332094278_8" function="internal">
        <lane id=":1332094278_8_0" index="0" allow="delivery bicycle pedestrian" speed="3.65" length="4.67" shape="3966.82,1052.32 3968.09,1053.01 3968.56,1053.77 3968.23,1054.60 3967.10,1055.51"/>
    </edge>
    <edge id=":1332094279_0" function="internal">
        <lane id=":1332094279_0_0" index="0" allow="delivery bicycle pedestrian" speed="5.56" length="9.22" shape="3906.43,1064.29 3904.65,1055.25"/>
    </edge>
    <edge id=":1332094279_1" function="internal">
        <lane id=":1332094279_1_0" index="0" allow="delivery bicycle pedestrian" speed="5.56" length="10.60" shape="3906.43,1064.29 3906.34,1061.35 3907.24,1059.17 3909.12,1057.75 3911.98,1057.08"/>
    </edge>
    <edge id=":1332094279_2" function="internal">
        <lane id=":1332094279_2_0" index="0" allow="delivery bicycle pedestrian" speed="3.65" length="4.67" shape="3906.43,1064.29 3907.01,1062.97 3907.73,1062.44 3908.59,1062.70 3909.58,1063.74"/>
    </edge>