<?xml version="1.0" encoding="UTF-8"?>

<!-- generated on Mon Sep 28 03:16:03 2020 by Eclipse SUMO polyconvert Version 1.2.0
<configuration xmlns:xsi="http://www.w3.org/2001/XMLSchema-instance" xsi:noNamespaceSchemaLocation="http://sumo.dlr.de/xsd/polyconvertConfiguration.xsd">

    <input>
        <net-file value="highway.net.xml"/>
        <osm-files value="/home/longpham211/Downloads/map.osm"/>
        <type-file value="/home/longpham211/Workspace/thesis/veins_simulator/src/sumo-1.2.0/data/typemap/osmPolyconvert.typ.xml"/>
    </input>

    <output>
        <output-file value="highway.poly.xml"/>
    </output>

    <processing>
        <poi-layer-offset value="5"/>
    </processing>

</configuration>
-->

<additional xmlns:xsi="http://www.w3.org/2001/XMLSchema-instance" xsi:noNamespaceSchemaLocation="http://sumo.dlr.de/xsd/additional_file.xsd">
    <location netOffset="-468822.91,-5524189.51" convBoundary="-1632.54,-24199.43,7635.12,10858.26" origBoundary="8.543167,49.651591,8.671978,50.019495" projParameter="+proj=utm +zone=32 +ellps=WGS84 +datum=WGS84 +units=m +no_defs"/>

    <poly id="10101995" type="residential" color="235,235,227" fill="1" layer="-3.00" shape="3635.681785,2245.151511 3636.466442,2239.866211 3637.005840,2235.782963 3661.777954,2053.968968 3675.065674,1955.224456 3410.499009,1882.778429 3367.285416,1873.784327 3145.754720,1820.386279 2873.248621,1676.627151 2864.114028,1734.647048 2857.141745,1778.968715 2867.297791,1794.981516 2944.997474,1838.602621 3048.475939,1896.877644 3145.840941,1956.932086 3635.681785,2245.151511"/>
    <poly id="10102168" type="residential" color="235,235,227" fill="1" layer="-3.00" shape="3488.012661,2174.784306 3648.162184,2265.412256 3208.007254,2654.650476 3211.211295,2541.436295 3215.059875,2454.080429 3253.762337,2450.032444 3252.712140,2433.137768 3310.432601,2380.003407 3353.963090,2378.810839 3354.837665,2286.778489 3363.125886,2286.546627 3362.915429,2209.696651 3469.074704,2209.148988 3488.012661,2174.784306"/>
    <poly id="10218033" type="building" color="255,230,230" fill="1" layer="-1.00" shape="3167.859101,2597.321043 3171.010758,2597.015556 3192.599783,2618.639911 3203.197141,2608.122288 3181.607886,2586.453418 3181.816306,2576.812587 3181.990540,2568.884184 3204.586250,2547.874992 3194.697673,2537.252643 3172.173030,2558.116965 3168.819831,2558.345671 3148.015180,2535.683303 3136.884412,2545.848021 3157.702684,2568.365734 3157.320110,2585.934970 3134.887452,2606.465419 3145.405078,2617.884915 3167.859101,2597.321043"/>
    <poly id="116098027" type="building" color="255,230,230" fill="1" layer="-1.00" shape="3644.182884,647.482530 3652.125318,610.039402 3661.605989,612.047857 3663.763949,612.503804 3655.828623,649.946879 3644.182884,647.482530"/>
    <poly id="116098034" type="building" color="255,230,230" fill="1" layer="-1.00" shape="3649.221314,657.607926 3681.748328,664.412991 3683.489014,664.771011 3681.138932,675.934833 3646.871243,668.760645 3649.221314,657.607926"/>
    <poly id="116098043" type="building" color="255,230,230" fill="1" layer="-1.00" shape="3680.726478,659.892994 3687.804777,626.256848 3699.342537,628.677368 3692.264169,662.313499 3684.358970,660.652736 3682.618282,660.294716 3680.726478,659.892994"/>
    <poly id="117882915" type="landuse" color="194,194,130" fill="1" layer="-3.00" shape="2428.148642,1565.210605 2420.641007,1558.457305 2332.081353,1506.162758 2322.210237,1512.875652 2309.999706,1514.720086 2191.358299,1495.933661 2134.721620,1490.057070 2142.756929,1398.764128 1962.266010,1293.447791 1913.800144,1251.371773 1890.171326,1452.333939 1656.046075,1435.000535 1541.032928,1427.449333 1530.485852,1426.073125 1522.097402,1480.066392 1615.317155,1500.278519 1817.070301,1528.671640 1903.399410,1531.903888 2074.421007,1528.063404 2128.536797,1530.150433 2243.839728,1545.428848 2428.148642,1565.210605"/>
    <poly id="117882916" type="landuse" color="194,194,130" fill="1" layer="-3.00" shape="1315.215307,1611.708323 1314.980612,1579.766100 1314.050587,1450.985389 1314.029092,1448.406010 1230.735579,1468.137183 1200.473725,1469.172880 1205.230779,1615.143771 1315.215307,1611.708323"/>
    <poly id="117882917" type="landuse" color="194,194,130" fill="1" layer="-3.00" shape="1890.171326,1452.333939 1913.800144,1251.371773 1741.897973,1275.780221 1655.614000,1285.481110 1556.144104,1292.109390 1541.032928,1427.449333 1656.046075,1435.000535 1890.171326,1452.333939"/>
    <poly id="117882918" type="building" color="255,230,230" fill="1" layer="-1.00" shape="1365.875190,1380.328982 1410.977869,1380.090494 1411.033388,1390.130211 1365.988268,1390.368381 1365.875190,1380.328982"/>
    <poly id="117882919" type="building" color="255,230,230" fill="1" layer="-1.00" shape="1365.996272,1395.705227 1411.106006,1395.466699 1411.154403,1405.517574 1366.109349,1405.744626 1365.996272,1395.705227"/>
    <poly id="117882920" type="building" color="255,230,230" fill="1" layer="-1.00" shape="1368.076912,1414.650784 1411.922132,1414.430383 1411.977650,1424.470100 1368.190047,1424.701301 1368.076912,1414.650784"/>
    <poly id="125948415" type="building" color="255,230,230" fill="1" layer="-1.00" shape="3019.657693,2480.883231 3027.726196,2537.567651 3087.264157,2529.139991 3079.189030,2472.444405 3026.046216,2480.060390 3019.657693,2480.883231"/>
    <poly id="125948416" type="building" color="255,230,230" fill="1" layer="-1.00" shape="2891.699556,2685.645786 2892.830362,2686.240241 2894.087939,2686.355934 2988.868799,2676.418920 2990.073536,2676.045698 2991.053345,2675.240032 2991.650792,2674.113933 2991.766313,2672.856935 2976.574313,2531.586896 2973.228929,2531.937985 2972.277811,2523.148229 2974.790415,2522.879333 2974.216383,2517.512101 2973.612511,2511.933774 2971.056805,2512.202896 2969.963263,2502.279799 2973.351646,2501.906245 2958.421224,2362.747431 2958.048540,2361.537468 2957.238922,2360.563285 2956.122421,2359.968741 2954.857586,2359.853071 2860.257721,2369.745204 2859.045741,2370.118492 2858.080203,2370.912988 2857.475566,2372.039140 2857.360127,2373.307257 2890.524479,2683.461616 2890.904281,2684.660419 2891.699556,2685.645786"/>
    <poly id="125948416#1" type="shop" color="237,199,255" fill="1" layer="-1.00" shape="2891.699556,2685.645786 2892.830362,2686.240241 2894.087939,2686.355934 2988.868799,2676.418920 2990.073536,2676.045698 2991.053345,2675.240032 2991.650792,2674.113933 2991.766313,2672.856935 2976.574313,2531.586896 2973.228929,2531.937985 2972.277811,2523.148229 2974.790415,2522.879333 2974.216383,2517.512101 2973.612511,2511.933774 2971.056805,2512.202896 2969.963263,2502.279799 2973.351646,2501.906245 2958.421224,2362.747431 2958.048540,2361.537468 2957.238922,2360.563285 2956.122421,2359.968741 2954.857586,2359.853071 2860.257721,2369.745204 2859.045741,2370.118492 2858.080203,2370.912988 2857.475566,2372.039140 2857.360127,2373.307257 2890.524479,2683.461616 2890.904281,2684.660419 2891.699556,2685.645786"/>
    <poly id="125953901" type="building" color="255,230,230" fill="1" layer="-1.00" shape="3012.667165,2030.431334 2997.887936,2028.551846 2994.002779,2058.947938 3002.923448,2060.079789 3002.606229,2062.605350 3008.457521,2063.353014 3012.667165,2030.431334"/>
    <poly id="125953901#1" type="shop" color="237,199,255" fill="1" layer="-1.00" shape="3012.667165,2030.431334 2997.887936,2028.551846 2994.002779,2058.947938 3002.923448,2060.079789 3002.606229,2062.605350 3008.457521,2063.353014 3012.667165,2030.431334"/>
    <poly id="125953902" type="amenity" color="237,199,199" fill="1" layer="-1.00" shape="3218.999285,2421.504977 3219.444984,2432.632285 3230.267529,2432.198035 3229.821853,2421.070727 3218.999285,2421.504977"/>
    <poly id="125953902#1" type="building" color="255,230,230" fill="1" layer="-1.00" shape="3218.999285,2421.504977 3219.444984,2432.632285 3230.267529,2432.198035 3229.821853,2421.070727 3218.999285,2421.504977"/>
    <poly id="125953903" type="amenity" color="237,199,199" fill="1" layer="-1.00" shape="3190.907348,2081.902945 3222.245715,2085.442521 3224.024986,2069.800670 3192.686530,2066.261083 3190.907348,2081.902945"/>
    <poly id="125953903#1" type="building" color="255,230,230" fill="1" layer="-1.00" shape="3190.907348,2081.902945 3222.245715,2085.442521 3224.024986,2069.800670 3192.686530,2066.261083 3190.907348,2081.902945"/>
    <poly id="125953904" type="building" color="255,230,230" fill="1" layer="-1.00" shape="3066.942849,2072.442332 3086.501610,2074.830746 3088.890701,2056.361564 3075.973040,2054.661161 3071.818349,2054.160288 3071.294714,2058.432527 3068.707035,2058.123606 3066.942849,2072.442332"/>
    <poly id="125953904#1" type="shop" color="237,199,255" fill="1" layer="-1.00" shape="3066.942849,2072.442332 3086.501610,2074.830746 3088.890701,2056.361564 3075.973040,2054.661161 3071.818349,2054.160288 3071.294714,2058.432527 3068.707035,2058.123606 3066.942849,2072.442332"/>
    <poly id="125953905" type="building" color="255,230,230" fill="1" layer="-1.00" shape="3224.741054,2401.250588 3225.715971,2418.846116 3246.856762,2417.680082 3246.626645,2413.478482 3246.318062,2407.998661 3245.881972,2400.095669 3224.741054,2401.250588"/>
    <poly id="125953907" type="building" color="255,230,230" fill="1" layer="-1.00" shape="3453.995426,1931.364367 3465.934869,1932.792754 3467.849846,1916.850096 3455.910368,1915.421705 3453.995426,1931.364367"/>
    <poly id="125953909" type="building" color="255,230,230" fill="1" layer="-1.00" shape="3675.649235,2543.067328 3682.631562,2554.428105 3716.443423,2533.752927 3709.453959,2522.392143 3675.649235,2543.067328"/>
    <poly id="125953910" type="building" color="255,230,230" fill="1" layer="-1.00" shape="3610.618109,2075.222501 3625.781509,2077.846641 3627.881810,2065.750089 3612.711251,2063.137098 3610.618109,2075.222501"/>
    <poly id="125953911" type="building" color="255,230,230" fill="1" layer="-1.00" shape="3271.602344,2359.513107 3309.033659,2358.151678 3308.564908,2345.312236 3271.133504,2346.673669 3271.602344,2359.513107"/>
    <poly id="125953913" type="building" color="255,230,230" fill="1" layer="-1.00" shape="3368.992677,1985.916627 3382.280375,1988.316288 3384.724979,1974.828049 3371.437306,1972.439499 3368.992677,1985.916627"/>
    <poly id="125953915" type="building" color="255,230,230" fill="1" layer="-1.00" shape="3621.434552,2115.538347 3619.544193,2127.945146 3626.316084,2128.944491 3628.177952,2116.582315 3621.434552,2115.538347"/>
    <poly id="125953917" type="building" color="255,230,230" fill="1" layer="-1.00" shape="2963.758544,2002.457644 2961.857697,2019.434444 2989.480226,2022.502938 2991.381158,2005.526149 2963.758544,2002.457644"/>
    <poly id="125953919" type="building" color="255,230,230" fill="1" layer="-1.00" shape="3431.949863,1984.535423 3442.416767,1986.004704 3444.606858,1970.494239 3434.139925,1969.024954 3431.949863,1984.535423"/>
    <poly id="125953920" type="building" color="255,230,230" fill="1" layer="-1.00" shape="3534.463643,2160.069217 3548.512880,2162.587676 3551.250491,2147.341285 3537.201272,2144.833936 3534.463643,2160.069217"/>
    <poly id="125953921" type="building" color="255,230,230" fill="1" layer="-1.00" shape="3250.864156,2209.921190 3250.407873,2220.274882 3263.527564,2220.851684 3263.991112,2210.509074 3250.864156,2209.921190"/>
    <poly id="125953922" type="building" color="255,230,230" fill="1" layer="-1.00" shape="3549.457279,2105.878511 3546.938668,2119.011264 3560.111594,2121.523135 3562.623053,2108.390425 3549.457279,2105.878511"/>
    <poly id="125953923" type="building" color="255,230,230" fill="1" layer="-1.00" shape="3554.502204,2127.289068 3539.919606,2124.439776 3537.749339,2135.458231 3552.331908,2138.307517 3554.502204,2127.289068"/>
    <poly id="125953924" type="building" color="255,230,230" fill="1" layer="-1.00" shape="3234.612615,2432.075403 3235.046884,2442.391120 3249.402601,2441.794022 3248.968303,2431.467185 3234.612615,2432.075403"/>
    <poly id="125953925" type="building" color="255,230,230" fill="1" layer="-1.00" shape="3586.041996,2093.160272 3597.186493,2095.137829 3599.812365,2080.481318 3588.667839,2078.503756 3586.041996,2093.160272"/>
    <poly id="125953926" type="building" color="255,230,230" fill="1" layer="-1.00" shape="3253.305113,2129.366113 3253.847164,2145.229398 3330.609787,2142.619051 3330.067961,2126.755759 3253.305113,2129.366113"/>
    <poly id="125953927" type="building" color="255,230,230" fill="1" layer="-1.00" shape="3223.225842,2453.871223 3223.511582,2466.011146 3236.539865,2465.698872 3236.254154,2453.558948 3223.225842,2453.871223"/>
    <poly id="125953928" type="building" color="255,230,230" fill="1" layer="-1.00" shape="3607.425018,2218.934257 3615.190707,2206.419527 3602.529573,2198.601378 3594.756776,2211.127282 3607.425018,2218.934257"/>
    <poly id="125953929" type="building" color="255,230,230" fill="1" layer="-1.00" shape="3594.023832,2138.204841 3591.814804,2151.491644 3606.697057,2153.961512 3608.913247,2140.663559 3594.023832,2138.204841"/>
    <poly id="125953930" type="building" color="255,230,230" fill="1" layer="-1.00" shape="3578.195781,2120.807723 3577.309798,2125.937892 3590.395183,2128.194561 3591.288362,2123.064357 3579.216713,2120.980383 3578.195781,2120.807723"/>
    <poly id="125953931" type="building" color="255,230,230" fill="1" layer="-1.00" shape="3572.665358,2167.177969 3568.589049,2195.929069 3579.537172,2197.473974 3583.613481,2168.711764 3572.665358,2167.177969"/>
    <poly id="125953932" type="building" color="255,230,230" fill="1" layer="-1.00" shape="2772.102569,1874.958155 2774.312093,1894.793022 2786.152922,2001.390355 2817.842860,1997.887714 2843.602622,1995.039115 2846.008206,2016.696415 2820.477770,2019.421491 2821.974652,2033.567461 2857.376814,2029.778649 2893.288107,2025.809499 2891.667073,2011.241660 2864.607875,2014.230288 2848.199048,1866.551736 2772.102569,1874.958155"/>
    <poly id="125953933" type="building" color="255,230,230" fill="1" layer="-1.00" shape="3537.360712,2175.875953 3547.353069,2177.336754 3548.894472,2166.955285 3538.902040,2165.483363 3537.360712,2175.875953"/>
    <poly id="125953934" type="building" color="255,230,230" fill="1" layer="-1.00" shape="2944.826346,2052.467890 2986.846932,2057.373236 2989.825021,2030.728824 2981.466273,2031.284063 2946.373539,2039.295465 2944.826346,2052.467890"/>
    <poly id="125953935" type="building" color="255,230,230" fill="1" layer="-1.00" shape="3521.226958,2143.737448 3509.026372,2141.721005 3506.747953,2155.441823 3518.941325,2157.458298 3521.226958,2143.737448"/>
    <poly id="125953936" type="building" color="255,230,230" fill="1" layer="-1.00" shape="3446.210462,2026.578773 3442.525027,2047.433822 3458.386234,2050.220673 3459.719539,2042.697704 3453.176629,2041.552847 3455.535986,2028.220738 3446.210462,2026.578773"/>
    <poly id="125953937" type="building" color="255,230,230" fill="1" layer="-1.00" shape="3538.484075,1981.997026 3551.712353,1984.030500 3553.644969,1971.478922 3540.416718,1969.456562 3538.484075,1981.997026"/>
    <poly id="125953939" type="building" color="255,230,230" fill="1" layer="-1.00" shape="3485.323399,2038.852316 3483.372825,2050.670194 3493.718671,2052.373685 3495.669266,2040.555811 3485.323399,2038.852316"/>
    <poly id="125953940" type="building" color="255,230,230" fill="1" layer="-1.00" shape="3473.343010,2061.517875 3456.295108,2058.448012 3453.857264,2071.880592 3470.905181,2074.961565 3473.343010,2061.517875"/>
    <poly id="125953941" type="building" color="255,230,230" fill="1" layer="-1.00" shape="3435.074234,2069.442371 3443.710434,2071.154580 3445.684961,2061.215589 3437.048804,2059.514495 3435.074234,2069.442371"/>
    <poly id="125953942" type="building" color="255,230,230" fill="1" layer="-1.00" shape="3422.267483,2065.539104 3424.294370,2051.830666 3415.941437,2050.728544 3415.177138,2055.746928 3408.132148,2054.749256 3406.868731,2063.272542 3422.267483,2065.539104"/>
    <poly id="125953943" type="building" color="255,230,230" fill="1" layer="-1.00" shape="3519.928896,2040.720160 3517.982402,2051.948723 3525.071674,2053.179799 3527.018125,2041.940121 3519.928896,2040.720160"/>
    <poly id="125953944" type="building" color="255,230,230" fill="1" layer="-1.00" shape="3631.676803,2105.457031 3649.581077,2108.878859 3650.994445,2101.511188 3644.580550,2100.287610 3645.860902,2093.598846 3636.117785,2091.736320 3634.956317,2097.790724 3633.216203,2097.454957 3631.676803,2105.457031"/>
    <poly id="125953945" type="building" color="255,230,230" fill="1" layer="-1.00" shape="3465.319895,2030.994445 3462.984668,2043.436946 3477.681888,2046.174256 3480.017090,2033.720643 3465.319895,2030.994445"/>
    <poly id="125953946" type="building" color="255,230,230" fill="1" layer="-1.00" shape="3516.029126,1955.639268 3528.117023,1958.012101 3531.092371,1942.886787 3519.004441,1940.513947 3516.029126,1955.639268"/>
    <poly id="125953947" type="amenity" color="237,199,199" fill="1" layer="-1.00" shape="3668.816140,2389.489101 3701.494842,2360.525239 3690.997643,2348.748770 3671.411805,2366.104755 3657.576981,2373.091196 3664.338715,2380.594959 3662.415217,2382.305924 3668.816140,2389.489101"/>
    <poly id="125953947#1" type="building" color="255,230,230" fill="1" layer="-1.00" shape="3668.816140,2389.489101 3701.494842,2360.525239 3690.997643,2348.748770 3671.411805,2366.104755 3657.576981,2373.091196 3664.338715,2380.594959 3662.415217,2382.305924 3668.816140,2389.489101"/>
    <poly id="125953948" type="building" color="255,230,230" fill="1" layer="-1.00" shape="3508.017998,2019.645133 3523.770014,2022.143658 3525.809044,2009.346915 3510.056992,2006.848384 3508.017998,2019.645133"/>
    <poly id="125953949" type="building" color="255,230,230" fill="1" layer="-1.00" shape="3644.341248,2508.382065 3650.361065,2516.912509 3660.452744,2509.834000 3654.440062,2501.292390 3644.341248,2508.382065"/>
    <poly id="125953950" type="building" color="255,230,230" fill="1" layer="-1.00" shape="3462.045582,1989.417025 3471.573616,1991.313700 3473.632482,1980.996259 3464.111613,1979.099543 3462.045582,1989.417025"/>
    <poly id="125953951" type="building" color="255,230,230" fill="1" layer="-1.00" shape="3488.990711,1975.346855 3483.087911,2014.847876 3494.849235,2016.599678 3500.752063,1977.087553 3488.990711,1975.346855"/>
    <poly id="125953952" type="building" color="255,230,230" fill="1" layer="-1.00" shape="3450.626396,1960.667831 3459.605394,1961.955798 3461.305045,1950.239272 3452.325970,1948.940184 3450.626396,1960.667831"/>
    <poly id="125953953" type="building" color="255,230,230" fill="1" layer="-1.00" shape="3264.729205,2365.263666 3265.369064,2377.835374 3310.581901,2375.544115 3309.942147,2362.972402 3264.729205,2365.263666"/>
    <poly id="125953954" type="building" color="255,230,230" fill="1" layer="-1.00" shape="3140.754347,2388.378681 3142.192603,2398.344487 3195.458430,2390.717900 3194.020272,2380.752081 3140.754347,2388.378681"/>
    <poly id="125953958" type="building" color="255,230,230" fill="1" layer="-1.00" shape="3064.792509,1948.204325 3058.985476,1995.821841 3070.551179,1997.217947 3076.358312,1949.600445 3064.792509,1948.204325"/>
    <poly id="125953959" type="building" color="255,230,230" fill="1" layer="-1.00" shape="3496.047560,1931.147906 3489.795069,1971.117690 3501.535337,1972.947446 3507.787855,1932.966557 3496.047560,1931.147906"/>
    <poly id="125953962" type="building" color="255,230,230" fill="1" layer="-1.00" shape="2956.058072,1890.190041 2955.105583,1903.081378 2971.447684,1904.285450 2972.400212,1891.394117 2956.058072,1890.190041"/>
    <poly id="125953963" type="building" color="255,230,230" fill="1" layer="-1.00" shape="3593.240222,2053.997399 3591.083035,2068.996183 3604.432569,2070.906859 3606.582551,2055.897000 3593.240222,2053.997399"/>
    <poly id="125953964" type="building" color="255,230,230" fill="1" layer="-1.00" shape="3223.618090,2393.873735 3298.477516,2389.238098 3297.693962,2376.644894 3222.834361,2381.280541 3223.618090,2393.873735"/>
    <poly id="125953966" type="building" color="255,230,230" fill="1" layer="-1.00" shape="3204.927856,2369.020939 3193.185067,2370.705296 3195.047860,2383.593074 3206.783497,2381.919876 3204.927856,2369.020939"/>
    <poly id="125953967" type="building" color="255,230,230" fill="1" layer="-1.00" shape="3021.995567,2281.104775 3028.593178,2325.699942 3111.407991,2314.715909 3109.652025,2301.694180 3103.679775,2302.492511 3099.031727,2270.728959 3021.995567,2281.104775"/>
    <poly id="125953968" type="building" color="255,230,230" fill="1" layer="-1.00" shape="3148.258462,2410.020673 3150.546292,2425.885982 3175.948097,2422.251406 3173.667524,2406.386049 3148.258462,2410.020673"/>
    <poly id="125953969" type="building" color="255,230,230" fill="1" layer="-1.00" shape="3245.781101,2272.722627 3246.780801,2288.183274 3298.662165,2284.845530 3297.662670,2269.395993 3245.781101,2272.722627"/>
    <poly id="125953970" type="building" color="255,230,230" fill="1" layer="-1.00" shape="2978.922731,1910.528231 2957.358128,1907.961706 2954.673865,1930.346205 2976.238321,1932.901601 2978.922731,1910.528231"/>
    <poly id="125953971" type="building" color="255,230,230" fill="1" layer="-1.00" shape="3556.346551,2075.156107 3552.791770,2092.152291 3566.591586,2095.027871 3570.146351,2078.020578 3556.346551,2075.156107"/>
    <poly id="125953972" type="building" color="255,230,230" fill="1" layer="-1.00" shape="3005.176826,2443.834327 3041.438198,2438.641270 3038.560921,2418.631883 3002.292233,2423.824996 3005.176826,2443.834327"/>
    <poly id="125953975" type="building" color="255,230,230" fill="1" layer="-1.00" shape="3352.338405,2013.187429 3362.756199,2014.890297 3364.581359,2003.873555 3354.163486,2002.159565 3352.338405,2013.187429"/>
    <poly id="125953977" type="building" color="255,230,230" fill="1" layer="-1.00" shape="3409.371518,1978.914732 3420.301218,1980.970862 3422.399076,1969.874905 3411.462171,1967.818807 3409.371518,1978.914732"/>
    <poly id="125953981" type="building" color="255,230,230" fill="1" layer="-1.00" shape="3440.687737,1925.106514 3451.061139,1926.531821 3452.757691,1914.214911 3442.391506,1912.800682 3440.687737,1925.106514"/>
    <poly id="125953982" type="building" color="255,230,230" fill="1" layer="-1.00" shape="2998.218924,2016.308642 3012.199144,2017.869877 3014.162415,2000.436911 3000.182150,1998.875671 2998.218924,2016.308642"/>
    <poly id="125953983" type="building" color="255,230,230" fill="1" layer="-1.00" shape="3200.305722,2119.668093 3196.792367,2119.541818 3153.935036,2117.974746 3109.245485,2116.328622 3108.143837,2146.131952 3199.232245,2149.460135 3199.415067,2144.555926 3199.738478,2134.914505 3200.305722,2119.668093"/>
    <poly id="125953984" type="building" color="255,230,230" fill="1" layer="-1.00" shape="3058.352327,2025.878455 3055.713968,2050.241758 3065.812878,2051.400912 3068.574560,2027.259340 3058.352327,2025.878455"/>
    <poly id="125953985" type="building" color="255,230,230" fill="1" layer="-1.00" shape="3461.505426,2089.575195 3458.735296,2104.043506 3471.318703,2106.447012 3474.088866,2091.978708 3461.505426,2089.575195"/>
    <poly id="125953986" type="building" color="255,230,230" fill="1" layer="-1.00" shape="3342.222509,2099.018937 3295.828402,2072.029907 3290.224636,2081.609732 3336.618689,2108.598714 3342.222509,2099.018937"/>
    <poly id="125953988" type="building" color="255,230,230" fill="1" layer="-1.00" shape="3451.630759,2087.291177 3434.937888,2084.797715 3432.208350,2102.946052 3448.901167,2105.439506 3451.630759,2087.291177"/>
    <poly id="125953989" type="building" color="255,230,230" fill="1" layer="-1.00" shape="3428.627540,2022.866881 3410.395911,2018.735890 3407.509007,2031.436988 3425.740538,2035.556851 3428.627540,2022.866881"/>
    <poly id="125953990" type="building" color="255,230,230" fill="1" layer="-1.00" shape="3244.546527,2480.467150 3252.485613,2489.142851 3259.434647,2482.824836 3251.495564,2474.149126 3244.546527,2480.467150"/>
    <poly id="125953991" type="building" color="255,230,230" fill="1" layer="-1.00" shape="3528.188221,2104.698001 3526.423258,2116.303658 3540.650310,2118.454274 3542.415303,2106.848622 3528.188221,2104.698001"/>
    <poly id="125953992" type="building" color="255,230,230" fill="1" layer="-1.00" shape="3358.355572,2055.751277 3372.670950,2058.267904 3375.228070,2045.713030 3360.582859,2043.320404 3358.355572,2055.751277"/>
    <poly id="125953995" type="building" color="255,230,230" fill="1" layer="-1.00" shape="3389.225435,2061.762553 3395.668227,2062.996797 3397.935358,2051.310674 3391.492496,2050.065309 3389.225435,2061.762553"/>
    <poly id="125953997" type="building" color="255,230,230" fill="1" layer="-1.00" shape="3388.406721,1990.853023 3402.400782,1993.716063 3405.294718,1979.591760 3391.300622,1976.728712 3388.406721,1990.853023"/>
    <poly id="125953998" type="building" color="255,230,230" fill="1" layer="-1.00" shape="3572.103274,2154.227807 3571.171184,2160.169864 3583.040422,2162.021369 3583.965342,2156.079351 3572.563397,2154.303276 3572.103274,2154.227807"/>
    <poly id="125954000" type="building" color="255,230,230" fill="1" layer="-1.00" shape="3519.908779,2162.601189 3518.608572,2172.381028 3532.244632,2174.178867 3533.544921,2164.410149 3519.908779,2162.601189"/>
    <poly id="125954001" type="building" color="255,230,230" fill="1" layer="-1.00" shape="3478.638398,2063.136154 3476.443443,2077.712678 3493.840850,2080.313830 3496.035851,2065.737312 3478.638398,2063.136154"/>
    <poly id="125954003" type="building" color="255,230,230" fill="1" layer="-1.00" shape="3501.919518,2082.573806 3512.244089,2084.344152 3513.164849,2079.002542 3518.017969,2079.833720 3519.566661,2070.875374 3510.795089,2069.374991 3509.560457,2076.541648 3503.147127,2075.440538 3501.919518,2082.573806"/>
    <poly id="125954004" type="building" color="255,230,230" fill="1" layer="-1.00" shape="3508.176873,2487.810840 3490.957426,2502.787086 3581.417783,2606.180300 3586.417144,2602.007461 3595.877652,2593.753504 3598.629961,2591.204378 3508.176873,2487.810840"/>
    <poly id="125954005" type="building" color="255,230,230" fill="1" layer="-1.00" shape="3545.212792,1942.369528 3560.148548,1943.949517 3561.766200,1928.808952 3553.112313,1927.886056 3552.755893,1931.223433 3546.481112,1930.555180 3545.212792,1942.369528"/>
    <poly id="125954006" type="building" color="255,230,230" fill="1" layer="-1.00" shape="3488.089310,2096.142800 3484.949245,2111.324583 3494.182715,2113.256168 3497.365618,2098.018578 3488.089310,2096.142800"/>
    <poly id="125954008" type="building" color="255,230,230" fill="1" layer="-1.00" shape="3420.267254,2096.948050 3427.406831,2098.189856 3429.667250,2085.191799 3422.427894,2084.106163 3420.267254,2096.948050"/>
    <poly id="125954009" type="building" color="255,230,230" fill="1" layer="-1.00" shape="3535.067748,2003.573327 3550.467184,2005.951438 3552.866352,1990.528893 3537.466873,1988.150776 3535.067748,2003.573327"/>
    <poly id="125954010" type="building" color="255,230,230" fill="1" layer="-1.00" shape="3532.404731,2024.956747 3544.488925,2026.640288 3545.493863,2019.497056 3533.388160,2017.824742 3532.404731,2024.956747"/>
    <poly id="125954014" type="building" color="255,230,230" fill="1" layer="-1.00" shape="3604.029229,2112.758929 3602.260853,2125.131753 3609.456675,2126.151143 3611.225124,2113.789439 3604.029229,2112.758929"/>
    <poly id="125954015" type="building" color="255,230,230" fill="1" layer="-1.00" shape="3517.989579,1935.938345 3525.324156,1937.346058 3527.969196,1923.645606 3520.634601,1922.237890 3517.989579,1935.938345"/>
    <poly id="125954016" type="building" color="255,230,230" fill="1" layer="-1.00" shape="3546.370999,1962.276798 3558.745634,1964.537042 3561.715644,1948.355516 3549.340973,1946.095265 3546.370999,1962.276798"/>
    <poly id="125954018" type="building" color="255,230,230" fill="1" layer="-1.00" shape="3689.846432,2411.651978 3705.261895,2430.074430 3748.978936,2393.682948 3733.556338,2375.260408 3689.846432,2411.651978"/>
    <poly id="125954019" type="building" color="255,230,230" fill="1" layer="-1.00" shape="3516.118514,1978.620730 3528.793514,1980.623636 3529.872160,1973.846933 3517.197144,1971.844025 3516.118514,1978.620730"/>
    <poly id="125954021" type="building" color="255,230,230" fill="1" layer="-1.00" shape="3571.070832,1968.365276 3585.063026,1970.873008 3587.277133,1958.564607 3573.284966,1956.067987 3571.070832,1968.365276"/>
    <poly id="125954022" type="building" color="255,230,230" fill="1" layer="-1.00" shape="3524.345544,2001.338002 3525.944982,1989.666486 3514.737932,1988.145255 3513.429133,1997.658293 3513.138461,1999.805656 3524.345544,2001.338002"/>
    <poly id="125954023" type="building" color="255,230,230" fill="1" layer="-1.00" shape="3037.727287,2375.974529 3034.693600,2354.909706 2993.220656,2360.852799 2996.254503,2381.917601 3037.727287,2375.974529"/>
    <poly id="125954024" type="building" color="255,230,230" fill="1" layer="-1.00" shape="3558.588640,2008.133450 3567.250835,2009.300918 3569.285237,1994.180452 3560.623017,1993.012981 3558.588640,2008.133450"/>
    <poly id="125954025" type="building" color="255,230,230" fill="1" layer="-1.00" shape="3444.256401,2001.461048 3454.623160,2003.019816 3456.894930,1988.020386 3446.528144,1986.461613 3444.256401,2001.461048"/>
    <poly id="125954027" type="building" color="255,230,230" fill="1" layer="-1.00" shape="3650.717023,2520.501963 3666.397161,2542.958966 3674.306164,2537.470470 3658.633170,2515.002289 3650.717023,2520.501963"/>
    <poly id="125954028" type="building" color="255,230,230" fill="1" layer="-1.00" shape="2999.638672,2405.415523 3062.459524,2396.759161 3059.310685,2372.881944 3037.727287,2375.974529 2996.254503,2381.917601 2999.638672,2405.415523"/>